Using: /RAID2/cad/synopsys/hspice/2020.03-sp2-2/hspice/linux64/hspice SRAM_2KB.sp
 ****** HSPICE -- Q-2020.03-SP2-2 linux64 (Nov  1 2020) ******                  
  Copyright (c) 1986 - 2026 by Synopsys, Inc. All Rights Reserved.              
  This software and the associated documentation are proprietary
  to Synopsys, Inc. This software may only be used in accordance
  with the terms and conditions of a written license agreement with
  Synopsys, Inc. All other use, reproduction, or distribution of
  this software is strictly prohibited.
  Input File: SRAM_2KB.sp                                                       
  Command line options: /RAID2/cad/synopsys/hspice/2020.03-sp2-2/hspice/linux64/hspice SRAM_2KB.sp
  Start time: Fri Jun 19 14:10:34 2026
 lic:  
 lic: FLEXlm: SDK_12.6 
 lic: USER:   es26mcs068           HOSTNAME: ee24 
 lic: HOSTID: "d85ed3efc3e3"       PID:      201371 
 lic: Using FLEXlm license file: 
 lic: 26585@lshc 
 lic: Checkout 1 hspice 
 lic: License/Maintenance for hspice will expire on 14-jun-2027/2026.03 
 lic: 690(in_use)/1235(total) FLOATING license(s) on SERVER 26585@lshc 
 lic:   
  **warning** (SRAM_2KB.sp:53) Global net name "vdd" in subckt pin list. The pin will be connected to the local net. Recommend to not use global net names in subckt pin lists.
  **warning** multiple output options specified, using fsdb
1****** HSPICE -- Q-2020.03-SP2-2 linux64 (Nov  1 2020) ******                  
 ******  
 * ======================================================================

 ****** circuit name directory
 circuit number to circuit name directory
   number circuitname                     definition         multiplier
        0 main circuit
        1 x_ctrl.                         global_ctrl        1.00 
        2 x_a0_inv.                       inv_s              1.00 
        3 x_sel0_buf.                     inv_l              1.00 
        4 x_sel1_buf.                     inv_l              1.00 
        5 x_row_dec.                      row_decoder_3x2to4
                                                                 1.00 
        6 x_cell_0_0.                     sram_cell          1.00 
        7 x_cell_0_1.                     sram_cell          1.00 
        8 x_cell_0_2.                     sram_cell          1.00 
        9 x_cell_0_3.                     sram_cell          1.00 
       10 x_cell_0_4.                     sram_cell          1.00 
       11 x_cell_0_5.                     sram_cell          1.00 
       12 x_cell_0_6.                     sram_cell          1.00 
       13 x_cell_0_7.                     sram_cell          1.00 
       14 x_cell_0_8.                     sram_cell          1.00 
       15 x_cell_0_9.                     sram_cell          1.00 
       16 x_cell_0_10.                    sram_cell          1.00 
       17 x_cell_0_11.                    sram_cell          1.00 
       18 x_cell_0_12.                    sram_cell          1.00 
       19 x_cell_0_13.                    sram_cell          1.00 
       20 x_cell_0_14.                    sram_cell          1.00 
       21 x_cell_0_15.                    sram_cell          1.00 
       22 x_cell_0_16.                    sram_cell          1.00 
       23 x_cell_0_17.                    sram_cell          1.00 
       24 x_cell_0_18.                    sram_cell          1.00 
       25 x_cell_0_19.                    sram_cell          1.00 
       26 x_cell_0_20.                    sram_cell          1.00 
       27 x_cell_0_21.                    sram_cell          1.00 
       28 x_cell_0_22.                    sram_cell          1.00 
       29 x_cell_0_23.                    sram_cell          1.00 
       30 x_cell_0_24.                    sram_cell          1.00 
       31 x_cell_0_25.                    sram_cell          1.00 
       32 x_cell_0_26.                    sram_cell          1.00 
       33 x_cell_0_27.                    sram_cell          1.00 
       34 x_cell_0_28.                    sram_cell          1.00 
       35 x_cell_0_29.                    sram_cell          1.00 
       36 x_cell_0_30.                    sram_cell          1.00 
       37 x_cell_0_31.                    sram_cell          1.00 
       38 x_cell_1_0.                     sram_cell          1.00 
       39 x_cell_1_1.                     sram_cell          1.00 
       40 x_cell_1_2.                     sram_cell          1.00 
       41 x_cell_1_3.                     sram_cell          1.00 
       42 x_cell_1_4.                     sram_cell          1.00 
       43 x_cell_1_5.                     sram_cell          1.00 
       44 x_cell_1_6.                     sram_cell          1.00 
       45 x_cell_1_7.                     sram_cell          1.00 
       46 x_cell_1_8.                     sram_cell          1.00 
       47 x_cell_1_9.                     sram_cell          1.00 
       48 x_cell_1_10.                    sram_cell          1.00 
       49 x_cell_1_11.                    sram_cell          1.00 
       50 x_cell_1_12.                    sram_cell          1.00 
       51 x_cell_1_13.                    sram_cell          1.00 
       52 x_cell_1_14.                    sram_cell          1.00 
       53 x_cell_1_15.                    sram_cell          1.00 
       54 x_cell_1_16.                    sram_cell          1.00 
       55 x_cell_1_17.                    sram_cell          1.00 
       56 x_cell_1_18.                    sram_cell          1.00 
       57 x_cell_1_19.                    sram_cell          1.00 
       58 x_cell_1_20.                    sram_cell          1.00 
       59 x_cell_1_21.                    sram_cell          1.00 
       60 x_cell_1_22.                    sram_cell          1.00 
       61 x_cell_1_23.                    sram_cell          1.00 
       62 x_cell_1_24.                    sram_cell          1.00 
       63 x_cell_1_25.                    sram_cell          1.00 
       64 x_cell_1_26.                    sram_cell          1.00 
       65 x_cell_1_27.                    sram_cell          1.00 
       66 x_cell_1_28.                    sram_cell          1.00 
       67 x_cell_1_29.                    sram_cell          1.00 
       68 x_cell_1_30.                    sram_cell          1.00 
       69 x_cell_1_31.                    sram_cell          1.00 
       70 x_cell_2_0.                     sram_cell          1.00 
       71 x_cell_2_1.                     sram_cell          1.00 
       72 x_cell_2_2.                     sram_cell          1.00 
       73 x_cell_2_3.                     sram_cell          1.00 
       74 x_cell_2_4.                     sram_cell          1.00 
       75 x_cell_2_5.                     sram_cell          1.00 
       76 x_cell_2_6.                     sram_cell          1.00 
       77 x_cell_2_7.                     sram_cell          1.00 
       78 x_cell_2_8.                     sram_cell          1.00 
       79 x_cell_2_9.                     sram_cell          1.00 
       80 x_cell_2_10.                    sram_cell          1.00 
       81 x_cell_2_11.                    sram_cell          1.00 
       82 x_cell_2_12.                    sram_cell          1.00 
       83 x_cell_2_13.                    sram_cell          1.00 
       84 x_cell_2_14.                    sram_cell          1.00 
       85 x_cell_2_15.                    sram_cell          1.00 
       86 x_cell_2_16.                    sram_cell          1.00 
       87 x_cell_2_17.                    sram_cell          1.00 
       88 x_cell_2_18.                    sram_cell          1.00 
       89 x_cell_2_19.                    sram_cell          1.00 
       90 x_cell_2_20.                    sram_cell          1.00 
       91 x_cell_2_21.                    sram_cell          1.00 
       92 x_cell_2_22.                    sram_cell          1.00 
       93 x_cell_2_23.                    sram_cell          1.00 
       94 x_cell_2_24.                    sram_cell          1.00 
       95 x_cell_2_25.                    sram_cell          1.00 
       96 x_cell_2_26.                    sram_cell          1.00 
       97 x_cell_2_27.                    sram_cell          1.00 
       98 x_cell_2_28.                    sram_cell          1.00 
       99 x_cell_2_29.                    sram_cell          1.00 
      100 x_cell_2_30.                    sram_cell          1.00 
      101 x_cell_2_31.                    sram_cell          1.00 
      102 x_cell_3_0.                     sram_cell          1.00 
      103 x_cell_3_1.                     sram_cell          1.00 
      104 x_cell_3_2.                     sram_cell          1.00 
      105 x_cell_3_3.                     sram_cell          1.00 
      106 x_cell_3_4.                     sram_cell          1.00 
      107 x_cell_3_5.                     sram_cell          1.00 
      108 x_cell_3_6.                     sram_cell          1.00 
      109 x_cell_3_7.                     sram_cell          1.00 
      110 x_cell_3_8.                     sram_cell          1.00 
      111 x_cell_3_9.                     sram_cell          1.00 
      112 x_cell_3_10.                    sram_cell          1.00 
      113 x_cell_3_11.                    sram_cell          1.00 
      114 x_cell_3_12.                    sram_cell          1.00 
      115 x_cell_3_13.                    sram_cell          1.00 
      116 x_cell_3_14.                    sram_cell          1.00 
      117 x_cell_3_15.                    sram_cell          1.00 
      118 x_cell_3_16.                    sram_cell          1.00 
      119 x_cell_3_17.                    sram_cell          1.00 
      120 x_cell_3_18.                    sram_cell          1.00 
      121 x_cell_3_19.                    sram_cell          1.00 
      122 x_cell_3_20.                    sram_cell          1.00 
      123 x_cell_3_21.                    sram_cell          1.00 
      124 x_cell_3_22.                    sram_cell          1.00 
      125 x_cell_3_23.                    sram_cell          1.00 
      126 x_cell_3_24.                    sram_cell          1.00 
      127 x_cell_3_25.                    sram_cell          1.00 
      128 x_cell_3_26.                    sram_cell          1.00 
      129 x_cell_3_27.                    sram_cell          1.00 
      130 x_cell_3_28.                    sram_cell          1.00 
      131 x_cell_3_29.                    sram_cell          1.00 
      132 x_cell_3_30.                    sram_cell          1.00 
      133 x_cell_3_31.                    sram_cell          1.00 
      134 x_cell_4_0.                     sram_cell          1.00 
      135 x_cell_4_1.                     sram_cell          1.00 
      136 x_cell_4_2.                     sram_cell          1.00 
      137 x_cell_4_3.                     sram_cell          1.00 
      138 x_cell_4_4.                     sram_cell          1.00 
      139 x_cell_4_5.                     sram_cell          1.00 
      140 x_cell_4_6.                     sram_cell          1.00 
      141 x_cell_4_7.                     sram_cell          1.00 
      142 x_cell_4_8.                     sram_cell          1.00 
      143 x_cell_4_9.                     sram_cell          1.00 
      144 x_cell_4_10.                    sram_cell          1.00 
      145 x_cell_4_11.                    sram_cell          1.00 
      146 x_cell_4_12.                    sram_cell          1.00 
      147 x_cell_4_13.                    sram_cell          1.00 
      148 x_cell_4_14.                    sram_cell          1.00 
      149 x_cell_4_15.                    sram_cell          1.00 
      150 x_cell_4_16.                    sram_cell          1.00 
      151 x_cell_4_17.                    sram_cell          1.00 
      152 x_cell_4_18.                    sram_cell          1.00 
      153 x_cell_4_19.                    sram_cell          1.00 
      154 x_cell_4_20.                    sram_cell          1.00 
      155 x_cell_4_21.                    sram_cell          1.00 
      156 x_cell_4_22.                    sram_cell          1.00 
      157 x_cell_4_23.                    sram_cell          1.00 
      158 x_cell_4_24.                    sram_cell          1.00 
      159 x_cell_4_25.                    sram_cell          1.00 
      160 x_cell_4_26.                    sram_cell          1.00 
      161 x_cell_4_27.                    sram_cell          1.00 
      162 x_cell_4_28.                    sram_cell          1.00 
      163 x_cell_4_29.                    sram_cell          1.00 
      164 x_cell_4_30.                    sram_cell          1.00 
      165 x_cell_4_31.                    sram_cell          1.00 
      166 x_cell_5_0.                     sram_cell          1.00 
      167 x_cell_5_1.                     sram_cell          1.00 
      168 x_cell_5_2.                     sram_cell          1.00 
      169 x_cell_5_3.                     sram_cell          1.00 
      170 x_cell_5_4.                     sram_cell          1.00 
      171 x_cell_5_5.                     sram_cell          1.00 
      172 x_cell_5_6.                     sram_cell          1.00 
      173 x_cell_5_7.                     sram_cell          1.00 
      174 x_cell_5_8.                     sram_cell          1.00 
      175 x_cell_5_9.                     sram_cell          1.00 
      176 x_cell_5_10.                    sram_cell          1.00 
      177 x_cell_5_11.                    sram_cell          1.00 
      178 x_cell_5_12.                    sram_cell          1.00 
      179 x_cell_5_13.                    sram_cell          1.00 
      180 x_cell_5_14.                    sram_cell          1.00 
      181 x_cell_5_15.                    sram_cell          1.00 
      182 x_cell_5_16.                    sram_cell          1.00 
      183 x_cell_5_17.                    sram_cell          1.00 
      184 x_cell_5_18.                    sram_cell          1.00 
      185 x_cell_5_19.                    sram_cell          1.00 
      186 x_cell_5_20.                    sram_cell          1.00 
      187 x_cell_5_21.                    sram_cell          1.00 
      188 x_cell_5_22.                    sram_cell          1.00 
      189 x_cell_5_23.                    sram_cell          1.00 
      190 x_cell_5_24.                    sram_cell          1.00 
      191 x_cell_5_25.                    sram_cell          1.00 
      192 x_cell_5_26.                    sram_cell          1.00 
      193 x_cell_5_27.                    sram_cell          1.00 
      194 x_cell_5_28.                    sram_cell          1.00 
      195 x_cell_5_29.                    sram_cell          1.00 
      196 x_cell_5_30.                    sram_cell          1.00 
      197 x_cell_5_31.                    sram_cell          1.00 
      198 x_cell_6_0.                     sram_cell          1.00 
      199 x_cell_6_1.                     sram_cell          1.00 
      200 x_cell_6_2.                     sram_cell          1.00 
      201 x_cell_6_3.                     sram_cell          1.00 
      202 x_cell_6_4.                     sram_cell          1.00 
      203 x_cell_6_5.                     sram_cell          1.00 
      204 x_cell_6_6.                     sram_cell          1.00 
      205 x_cell_6_7.                     sram_cell          1.00 
      206 x_cell_6_8.                     sram_cell          1.00 
      207 x_cell_6_9.                     sram_cell          1.00 
      208 x_cell_6_10.                    sram_cell          1.00 
      209 x_cell_6_11.                    sram_cell          1.00 
      210 x_cell_6_12.                    sram_cell          1.00 
      211 x_cell_6_13.                    sram_cell          1.00 
      212 x_cell_6_14.                    sram_cell          1.00 
      213 x_cell_6_15.                    sram_cell          1.00 
      214 x_cell_6_16.                    sram_cell          1.00 
      215 x_cell_6_17.                    sram_cell          1.00 
      216 x_cell_6_18.                    sram_cell          1.00 
      217 x_cell_6_19.                    sram_cell          1.00 
      218 x_cell_6_20.                    sram_cell          1.00 
      219 x_cell_6_21.                    sram_cell          1.00 
      220 x_cell_6_22.                    sram_cell          1.00 
      221 x_cell_6_23.                    sram_cell          1.00 
      222 x_cell_6_24.                    sram_cell          1.00 
      223 x_cell_6_25.                    sram_cell          1.00 
      224 x_cell_6_26.                    sram_cell          1.00 
      225 x_cell_6_27.                    sram_cell          1.00 
      226 x_cell_6_28.                    sram_cell          1.00 
      227 x_cell_6_29.                    sram_cell          1.00 
      228 x_cell_6_30.                    sram_cell          1.00 
      229 x_cell_6_31.                    sram_cell          1.00 
      230 x_cell_7_0.                     sram_cell          1.00 
      231 x_cell_7_1.                     sram_cell          1.00 
      232 x_cell_7_2.                     sram_cell          1.00 
      233 x_cell_7_3.                     sram_cell          1.00 
      234 x_cell_7_4.                     sram_cell          1.00 
      235 x_cell_7_5.                     sram_cell          1.00 
      236 x_cell_7_6.                     sram_cell          1.00 
      237 x_cell_7_7.                     sram_cell          1.00 
      238 x_cell_7_8.                     sram_cell          1.00 
      239 x_cell_7_9.                     sram_cell          1.00 
      240 x_cell_7_10.                    sram_cell          1.00 
      241 x_cell_7_11.                    sram_cell          1.00 
      242 x_cell_7_12.                    sram_cell          1.00 
      243 x_cell_7_13.                    sram_cell          1.00 
      244 x_cell_7_14.                    sram_cell          1.00 
      245 x_cell_7_15.                    sram_cell          1.00 
      246 x_cell_7_16.                    sram_cell          1.00 
      247 x_cell_7_17.                    sram_cell          1.00 
      248 x_cell_7_18.                    sram_cell          1.00 
      249 x_cell_7_19.                    sram_cell          1.00 
      250 x_cell_7_20.                    sram_cell          1.00 
      251 x_cell_7_21.                    sram_cell          1.00 
      252 x_cell_7_22.                    sram_cell          1.00 
      253 x_cell_7_23.                    sram_cell          1.00 
      254 x_cell_7_24.                    sram_cell          1.00 
      255 x_cell_7_25.                    sram_cell          1.00 
      256 x_cell_7_26.                    sram_cell          1.00 
      257 x_cell_7_27.                    sram_cell          1.00 
      258 x_cell_7_28.                    sram_cell          1.00 
      259 x_cell_7_29.                    sram_cell          1.00 
      260 x_cell_7_30.                    sram_cell          1.00 
      261 x_cell_7_31.                    sram_cell          1.00 
      262 x_cell_8_0.                     sram_cell          1.00 
      263 x_cell_8_1.                     sram_cell          1.00 
      264 x_cell_8_2.                     sram_cell          1.00 
      265 x_cell_8_3.                     sram_cell          1.00 
      266 x_cell_8_4.                     sram_cell          1.00 
      267 x_cell_8_5.                     sram_cell          1.00 
      268 x_cell_8_6.                     sram_cell          1.00 
      269 x_cell_8_7.                     sram_cell          1.00 
      270 x_cell_8_8.                     sram_cell          1.00 
      271 x_cell_8_9.                     sram_cell          1.00 
      272 x_cell_8_10.                    sram_cell          1.00 
      273 x_cell_8_11.                    sram_cell          1.00 
      274 x_cell_8_12.                    sram_cell          1.00 
      275 x_cell_8_13.                    sram_cell          1.00 
      276 x_cell_8_14.                    sram_cell          1.00 
      277 x_cell_8_15.                    sram_cell          1.00 
      278 x_cell_8_16.                    sram_cell          1.00 
      279 x_cell_8_17.                    sram_cell          1.00 
      280 x_cell_8_18.                    sram_cell          1.00 
      281 x_cell_8_19.                    sram_cell          1.00 
      282 x_cell_8_20.                    sram_cell          1.00 
      283 x_cell_8_21.                    sram_cell          1.00 
      284 x_cell_8_22.                    sram_cell          1.00 
      285 x_cell_8_23.                    sram_cell          1.00 
      286 x_cell_8_24.                    sram_cell          1.00 
      287 x_cell_8_25.                    sram_cell          1.00 
      288 x_cell_8_26.                    sram_cell          1.00 
      289 x_cell_8_27.                    sram_cell          1.00 
      290 x_cell_8_28.                    sram_cell          1.00 
      291 x_cell_8_29.                    sram_cell          1.00 
      292 x_cell_8_30.                    sram_cell          1.00 
      293 x_cell_8_31.                    sram_cell          1.00 
      294 x_cell_9_0.                     sram_cell          1.00 
      295 x_cell_9_1.                     sram_cell          1.00 
      296 x_cell_9_2.                     sram_cell          1.00 
      297 x_cell_9_3.                     sram_cell          1.00 
      298 x_cell_9_4.                     sram_cell          1.00 
      299 x_cell_9_5.                     sram_cell          1.00 
      300 x_cell_9_6.                     sram_cell          1.00 
      301 x_cell_9_7.                     sram_cell          1.00 
      302 x_cell_9_8.                     sram_cell          1.00 
      303 x_cell_9_9.                     sram_cell          1.00 
      304 x_cell_9_10.                    sram_cell          1.00 
      305 x_cell_9_11.                    sram_cell          1.00 
      306 x_cell_9_12.                    sram_cell          1.00 
      307 x_cell_9_13.                    sram_cell          1.00 
      308 x_cell_9_14.                    sram_cell          1.00 
      309 x_cell_9_15.                    sram_cell          1.00 
      310 x_cell_9_16.                    sram_cell          1.00 
      311 x_cell_9_17.                    sram_cell          1.00 
      312 x_cell_9_18.                    sram_cell          1.00 
      313 x_cell_9_19.                    sram_cell          1.00 
      314 x_cell_9_20.                    sram_cell          1.00 
      315 x_cell_9_21.                    sram_cell          1.00 
      316 x_cell_9_22.                    sram_cell          1.00 
      317 x_cell_9_23.                    sram_cell          1.00 
      318 x_cell_9_24.                    sram_cell          1.00 
      319 x_cell_9_25.                    sram_cell          1.00 
      320 x_cell_9_26.                    sram_cell          1.00 
      321 x_cell_9_27.                    sram_cell          1.00 
      322 x_cell_9_28.                    sram_cell          1.00 
      323 x_cell_9_29.                    sram_cell          1.00 
      324 x_cell_9_30.                    sram_cell          1.00 
      325 x_cell_9_31.                    sram_cell          1.00 
      326 x_cell_10_0.                    sram_cell          1.00 
      327 x_cell_10_1.                    sram_cell          1.00 
      328 x_cell_10_2.                    sram_cell          1.00 
      329 x_cell_10_3.                    sram_cell          1.00 
      330 x_cell_10_4.                    sram_cell          1.00 
      331 x_cell_10_5.                    sram_cell          1.00 
      332 x_cell_10_6.                    sram_cell          1.00 
      333 x_cell_10_7.                    sram_cell          1.00 
      334 x_cell_10_8.                    sram_cell          1.00 
      335 x_cell_10_9.                    sram_cell          1.00 
      336 x_cell_10_10.                   sram_cell          1.00 
      337 x_cell_10_11.                   sram_cell          1.00 
      338 x_cell_10_12.                   sram_cell          1.00 
      339 x_cell_10_13.                   sram_cell          1.00 
      340 x_cell_10_14.                   sram_cell          1.00 
      341 x_cell_10_15.                   sram_cell          1.00 
      342 x_cell_10_16.                   sram_cell          1.00 
      343 x_cell_10_17.                   sram_cell          1.00 
      344 x_cell_10_18.                   sram_cell          1.00 
      345 x_cell_10_19.                   sram_cell          1.00 
      346 x_cell_10_20.                   sram_cell          1.00 
      347 x_cell_10_21.                   sram_cell          1.00 
      348 x_cell_10_22.                   sram_cell          1.00 
      349 x_cell_10_23.                   sram_cell          1.00 
      350 x_cell_10_24.                   sram_cell          1.00 
      351 x_cell_10_25.                   sram_cell          1.00 
      352 x_cell_10_26.                   sram_cell          1.00 
      353 x_cell_10_27.                   sram_cell          1.00 
      354 x_cell_10_28.                   sram_cell          1.00 
      355 x_cell_10_29.                   sram_cell          1.00 
      356 x_cell_10_30.                   sram_cell          1.00 
      357 x_cell_10_31.                   sram_cell          1.00 
      358 x_cell_11_0.                    sram_cell          1.00 
      359 x_cell_11_1.                    sram_cell          1.00 
      360 x_cell_11_2.                    sram_cell          1.00 
      361 x_cell_11_3.                    sram_cell          1.00 
      362 x_cell_11_4.                    sram_cell          1.00 
      363 x_cell_11_5.                    sram_cell          1.00 
      364 x_cell_11_6.                    sram_cell          1.00 
      365 x_cell_11_7.                    sram_cell          1.00 
      366 x_cell_11_8.                    sram_cell          1.00 
      367 x_cell_11_9.                    sram_cell          1.00 
      368 x_cell_11_10.                   sram_cell          1.00 
      369 x_cell_11_11.                   sram_cell          1.00 
      370 x_cell_11_12.                   sram_cell          1.00 
      371 x_cell_11_13.                   sram_cell          1.00 
      372 x_cell_11_14.                   sram_cell          1.00 
      373 x_cell_11_15.                   sram_cell          1.00 
      374 x_cell_11_16.                   sram_cell          1.00 
      375 x_cell_11_17.                   sram_cell          1.00 
      376 x_cell_11_18.                   sram_cell          1.00 
      377 x_cell_11_19.                   sram_cell          1.00 
      378 x_cell_11_20.                   sram_cell          1.00 
      379 x_cell_11_21.                   sram_cell          1.00 
      380 x_cell_11_22.                   sram_cell          1.00 
      381 x_cell_11_23.                   sram_cell          1.00 
      382 x_cell_11_24.                   sram_cell          1.00 
      383 x_cell_11_25.                   sram_cell          1.00 
      384 x_cell_11_26.                   sram_cell          1.00 
      385 x_cell_11_27.                   sram_cell          1.00 
      386 x_cell_11_28.                   sram_cell          1.00 
      387 x_cell_11_29.                   sram_cell          1.00 
      388 x_cell_11_30.                   sram_cell          1.00 
      389 x_cell_11_31.                   sram_cell          1.00 
      390 x_cell_12_0.                    sram_cell          1.00 
      391 x_cell_12_1.                    sram_cell          1.00 
      392 x_cell_12_2.                    sram_cell          1.00 
      393 x_cell_12_3.                    sram_cell          1.00 
      394 x_cell_12_4.                    sram_cell          1.00 
      395 x_cell_12_5.                    sram_cell          1.00 
      396 x_cell_12_6.                    sram_cell          1.00 
      397 x_cell_12_7.                    sram_cell          1.00 
      398 x_cell_12_8.                    sram_cell          1.00 
      399 x_cell_12_9.                    sram_cell          1.00 
      400 x_cell_12_10.                   sram_cell          1.00 
      401 x_cell_12_11.                   sram_cell          1.00 
      402 x_cell_12_12.                   sram_cell          1.00 
      403 x_cell_12_13.                   sram_cell          1.00 
      404 x_cell_12_14.                   sram_cell          1.00 
      405 x_cell_12_15.                   sram_cell          1.00 
      406 x_cell_12_16.                   sram_cell          1.00 
      407 x_cell_12_17.                   sram_cell          1.00 
      408 x_cell_12_18.                   sram_cell          1.00 
      409 x_cell_12_19.                   sram_cell          1.00 
      410 x_cell_12_20.                   sram_cell          1.00 
      411 x_cell_12_21.                   sram_cell          1.00 
      412 x_cell_12_22.                   sram_cell          1.00 
      413 x_cell_12_23.                   sram_cell          1.00 
      414 x_cell_12_24.                   sram_cell          1.00 
      415 x_cell_12_25.                   sram_cell          1.00 
      416 x_cell_12_26.                   sram_cell          1.00 
      417 x_cell_12_27.                   sram_cell          1.00 
      418 x_cell_12_28.                   sram_cell          1.00 
      419 x_cell_12_29.                   sram_cell          1.00 
      420 x_cell_12_30.                   sram_cell          1.00 
      421 x_cell_12_31.                   sram_cell          1.00 
      422 x_cell_13_0.                    sram_cell          1.00 
      423 x_cell_13_1.                    sram_cell          1.00 
      424 x_cell_13_2.                    sram_cell          1.00 
      425 x_cell_13_3.                    sram_cell          1.00 
      426 x_cell_13_4.                    sram_cell          1.00 
      427 x_cell_13_5.                    sram_cell          1.00 
      428 x_cell_13_6.                    sram_cell          1.00 
      429 x_cell_13_7.                    sram_cell          1.00 
      430 x_cell_13_8.                    sram_cell          1.00 
      431 x_cell_13_9.                    sram_cell          1.00 
      432 x_cell_13_10.                   sram_cell          1.00 
      433 x_cell_13_11.                   sram_cell          1.00 
      434 x_cell_13_12.                   sram_cell          1.00 
      435 x_cell_13_13.                   sram_cell          1.00 
      436 x_cell_13_14.                   sram_cell          1.00 
      437 x_cell_13_15.                   sram_cell          1.00 
      438 x_cell_13_16.                   sram_cell          1.00 
      439 x_cell_13_17.                   sram_cell          1.00 
      440 x_cell_13_18.                   sram_cell          1.00 
      441 x_cell_13_19.                   sram_cell          1.00 
      442 x_cell_13_20.                   sram_cell          1.00 
      443 x_cell_13_21.                   sram_cell          1.00 
      444 x_cell_13_22.                   sram_cell          1.00 
      445 x_cell_13_23.                   sram_cell          1.00 
      446 x_cell_13_24.                   sram_cell          1.00 
      447 x_cell_13_25.                   sram_cell          1.00 
      448 x_cell_13_26.                   sram_cell          1.00 
      449 x_cell_13_27.                   sram_cell          1.00 
      450 x_cell_13_28.                   sram_cell          1.00 
      451 x_cell_13_29.                   sram_cell          1.00 
      452 x_cell_13_30.                   sram_cell          1.00 
      453 x_cell_13_31.                   sram_cell          1.00 
      454 x_cell_14_0.                    sram_cell          1.00 
      455 x_cell_14_1.                    sram_cell          1.00 
      456 x_cell_14_2.                    sram_cell          1.00 
      457 x_cell_14_3.                    sram_cell          1.00 
      458 x_cell_14_4.                    sram_cell          1.00 
      459 x_cell_14_5.                    sram_cell          1.00 
      460 x_cell_14_6.                    sram_cell          1.00 
      461 x_cell_14_7.                    sram_cell          1.00 
      462 x_cell_14_8.                    sram_cell          1.00 
      463 x_cell_14_9.                    sram_cell          1.00 
      464 x_cell_14_10.                   sram_cell          1.00 
      465 x_cell_14_11.                   sram_cell          1.00 
      466 x_cell_14_12.                   sram_cell          1.00 
      467 x_cell_14_13.                   sram_cell          1.00 
      468 x_cell_14_14.                   sram_cell          1.00 
      469 x_cell_14_15.                   sram_cell          1.00 
      470 x_cell_14_16.                   sram_cell          1.00 
      471 x_cell_14_17.                   sram_cell          1.00 
      472 x_cell_14_18.                   sram_cell          1.00 
      473 x_cell_14_19.                   sram_cell          1.00 
      474 x_cell_14_20.                   sram_cell          1.00 
      475 x_cell_14_21.                   sram_cell          1.00 
      476 x_cell_14_22.                   sram_cell          1.00 
      477 x_cell_14_23.                   sram_cell          1.00 
      478 x_cell_14_24.                   sram_cell          1.00 
      479 x_cell_14_25.                   sram_cell          1.00 
      480 x_cell_14_26.                   sram_cell          1.00 
      481 x_cell_14_27.                   sram_cell          1.00 
      482 x_cell_14_28.                   sram_cell          1.00 
      483 x_cell_14_29.                   sram_cell          1.00 
      484 x_cell_14_30.                   sram_cell          1.00 
      485 x_cell_14_31.                   sram_cell          1.00 
      486 x_cell_15_0.                    sram_cell          1.00 
      487 x_cell_15_1.                    sram_cell          1.00 
      488 x_cell_15_2.                    sram_cell          1.00 
      489 x_cell_15_3.                    sram_cell          1.00 
      490 x_cell_15_4.                    sram_cell          1.00 
      491 x_cell_15_5.                    sram_cell          1.00 
      492 x_cell_15_6.                    sram_cell          1.00 
      493 x_cell_15_7.                    sram_cell          1.00 
      494 x_cell_15_8.                    sram_cell          1.00 
      495 x_cell_15_9.                    sram_cell          1.00 
      496 x_cell_15_10.                   sram_cell          1.00 
      497 x_cell_15_11.                   sram_cell          1.00 
      498 x_cell_15_12.                   sram_cell          1.00 
      499 x_cell_15_13.                   sram_cell          1.00 
      500 x_cell_15_14.                   sram_cell          1.00 
      501 x_cell_15_15.                   sram_cell          1.00 
      502 x_cell_15_16.                   sram_cell          1.00 
      503 x_cell_15_17.                   sram_cell          1.00 
      504 x_cell_15_18.                   sram_cell          1.00 
      505 x_cell_15_19.                   sram_cell          1.00 
      506 x_cell_15_20.                   sram_cell          1.00 
      507 x_cell_15_21.                   sram_cell          1.00 
      508 x_cell_15_22.                   sram_cell          1.00 
      509 x_cell_15_23.                   sram_cell          1.00 
      510 x_cell_15_24.                   sram_cell          1.00 
      511 x_cell_15_25.                   sram_cell          1.00 
      512 x_cell_15_26.                   sram_cell          1.00 
      513 x_cell_15_27.                   sram_cell          1.00 
      514 x_cell_15_28.                   sram_cell          1.00 
      515 x_cell_15_29.                   sram_cell          1.00 
      516 x_cell_15_30.                   sram_cell          1.00 
      517 x_cell_15_31.                   sram_cell          1.00 
      518 x_cell_16_0.                    sram_cell          1.00 
      519 x_cell_16_1.                    sram_cell          1.00 
      520 x_cell_16_2.                    sram_cell          1.00 
      521 x_cell_16_3.                    sram_cell          1.00 
      522 x_cell_16_4.                    sram_cell          1.00 
      523 x_cell_16_5.                    sram_cell          1.00 
      524 x_cell_16_6.                    sram_cell          1.00 
      525 x_cell_16_7.                    sram_cell          1.00 
      526 x_cell_16_8.                    sram_cell          1.00 
      527 x_cell_16_9.                    sram_cell          1.00 
      528 x_cell_16_10.                   sram_cell          1.00 
      529 x_cell_16_11.                   sram_cell          1.00 
      530 x_cell_16_12.                   sram_cell          1.00 
      531 x_cell_16_13.                   sram_cell          1.00 
      532 x_cell_16_14.                   sram_cell          1.00 
      533 x_cell_16_15.                   sram_cell          1.00 
      534 x_cell_16_16.                   sram_cell          1.00 
      535 x_cell_16_17.                   sram_cell          1.00 
      536 x_cell_16_18.                   sram_cell          1.00 
      537 x_cell_16_19.                   sram_cell          1.00 
      538 x_cell_16_20.                   sram_cell          1.00 
      539 x_cell_16_21.                   sram_cell          1.00 
      540 x_cell_16_22.                   sram_cell          1.00 
      541 x_cell_16_23.                   sram_cell          1.00 
      542 x_cell_16_24.                   sram_cell          1.00 
      543 x_cell_16_25.                   sram_cell          1.00 
      544 x_cell_16_26.                   sram_cell          1.00 
      545 x_cell_16_27.                   sram_cell          1.00 
      546 x_cell_16_28.                   sram_cell          1.00 
      547 x_cell_16_29.                   sram_cell          1.00 
      548 x_cell_16_30.                   sram_cell          1.00 
      549 x_cell_16_31.                   sram_cell          1.00 
      550 x_cell_17_0.                    sram_cell          1.00 
      551 x_cell_17_1.                    sram_cell          1.00 
      552 x_cell_17_2.                    sram_cell          1.00 
      553 x_cell_17_3.                    sram_cell          1.00 
      554 x_cell_17_4.                    sram_cell          1.00 
      555 x_cell_17_5.                    sram_cell          1.00 
      556 x_cell_17_6.                    sram_cell          1.00 
      557 x_cell_17_7.                    sram_cell          1.00 
      558 x_cell_17_8.                    sram_cell          1.00 
      559 x_cell_17_9.                    sram_cell          1.00 
      560 x_cell_17_10.                   sram_cell          1.00 
      561 x_cell_17_11.                   sram_cell          1.00 
      562 x_cell_17_12.                   sram_cell          1.00 
      563 x_cell_17_13.                   sram_cell          1.00 
      564 x_cell_17_14.                   sram_cell          1.00 
      565 x_cell_17_15.                   sram_cell          1.00 
      566 x_cell_17_16.                   sram_cell          1.00 
      567 x_cell_17_17.                   sram_cell          1.00 
      568 x_cell_17_18.                   sram_cell          1.00 
      569 x_cell_17_19.                   sram_cell          1.00 
      570 x_cell_17_20.                   sram_cell          1.00 
      571 x_cell_17_21.                   sram_cell          1.00 
      572 x_cell_17_22.                   sram_cell          1.00 
      573 x_cell_17_23.                   sram_cell          1.00 
      574 x_cell_17_24.                   sram_cell          1.00 
      575 x_cell_17_25.                   sram_cell          1.00 
      576 x_cell_17_26.                   sram_cell          1.00 
      577 x_cell_17_27.                   sram_cell          1.00 
      578 x_cell_17_28.                   sram_cell          1.00 
      579 x_cell_17_29.                   sram_cell          1.00 
      580 x_cell_17_30.                   sram_cell          1.00 
      581 x_cell_17_31.                   sram_cell          1.00 
      582 x_cell_18_0.                    sram_cell          1.00 
      583 x_cell_18_1.                    sram_cell          1.00 
      584 x_cell_18_2.                    sram_cell          1.00 
      585 x_cell_18_3.                    sram_cell          1.00 
      586 x_cell_18_4.                    sram_cell          1.00 
      587 x_cell_18_5.                    sram_cell          1.00 
      588 x_cell_18_6.                    sram_cell          1.00 
      589 x_cell_18_7.                    sram_cell          1.00 
      590 x_cell_18_8.                    sram_cell          1.00 
      591 x_cell_18_9.                    sram_cell          1.00 
      592 x_cell_18_10.                   sram_cell          1.00 
      593 x_cell_18_11.                   sram_cell          1.00 
      594 x_cell_18_12.                   sram_cell          1.00 
      595 x_cell_18_13.                   sram_cell          1.00 
      596 x_cell_18_14.                   sram_cell          1.00 
      597 x_cell_18_15.                   sram_cell          1.00 
      598 x_cell_18_16.                   sram_cell          1.00 
      599 x_cell_18_17.                   sram_cell          1.00 
      600 x_cell_18_18.                   sram_cell          1.00 
      601 x_cell_18_19.                   sram_cell          1.00 
      602 x_cell_18_20.                   sram_cell          1.00 
      603 x_cell_18_21.                   sram_cell          1.00 
      604 x_cell_18_22.                   sram_cell          1.00 
      605 x_cell_18_23.                   sram_cell          1.00 
      606 x_cell_18_24.                   sram_cell          1.00 
      607 x_cell_18_25.                   sram_cell          1.00 
      608 x_cell_18_26.                   sram_cell          1.00 
      609 x_cell_18_27.                   sram_cell          1.00 
      610 x_cell_18_28.                   sram_cell          1.00 
      611 x_cell_18_29.                   sram_cell          1.00 
      612 x_cell_18_30.                   sram_cell          1.00 
      613 x_cell_18_31.                   sram_cell          1.00 
      614 x_cell_19_0.                    sram_cell          1.00 
      615 x_cell_19_1.                    sram_cell          1.00 
      616 x_cell_19_2.                    sram_cell          1.00 
      617 x_cell_19_3.                    sram_cell          1.00 
      618 x_cell_19_4.                    sram_cell          1.00 
      619 x_cell_19_5.                    sram_cell          1.00 
      620 x_cell_19_6.                    sram_cell          1.00 
      621 x_cell_19_7.                    sram_cell          1.00 
      622 x_cell_19_8.                    sram_cell          1.00 
      623 x_cell_19_9.                    sram_cell          1.00 
      624 x_cell_19_10.                   sram_cell          1.00 
      625 x_cell_19_11.                   sram_cell          1.00 
      626 x_cell_19_12.                   sram_cell          1.00 
      627 x_cell_19_13.                   sram_cell          1.00 
      628 x_cell_19_14.                   sram_cell          1.00 
      629 x_cell_19_15.                   sram_cell          1.00 
      630 x_cell_19_16.                   sram_cell          1.00 
      631 x_cell_19_17.                   sram_cell          1.00 
      632 x_cell_19_18.                   sram_cell          1.00 
      633 x_cell_19_19.                   sram_cell          1.00 
      634 x_cell_19_20.                   sram_cell          1.00 
      635 x_cell_19_21.                   sram_cell          1.00 
      636 x_cell_19_22.                   sram_cell          1.00 
      637 x_cell_19_23.                   sram_cell          1.00 
      638 x_cell_19_24.                   sram_cell          1.00 
      639 x_cell_19_25.                   sram_cell          1.00 
      640 x_cell_19_26.                   sram_cell          1.00 
      641 x_cell_19_27.                   sram_cell          1.00 
      642 x_cell_19_28.                   sram_cell          1.00 
      643 x_cell_19_29.                   sram_cell          1.00 
      644 x_cell_19_30.                   sram_cell          1.00 
      645 x_cell_19_31.                   sram_cell          1.00 
      646 x_cell_20_0.                    sram_cell          1.00 
      647 x_cell_20_1.                    sram_cell          1.00 
      648 x_cell_20_2.                    sram_cell          1.00 
      649 x_cell_20_3.                    sram_cell          1.00 
      650 x_cell_20_4.                    sram_cell          1.00 
      651 x_cell_20_5.                    sram_cell          1.00 
      652 x_cell_20_6.                    sram_cell          1.00 
      653 x_cell_20_7.                    sram_cell          1.00 
      654 x_cell_20_8.                    sram_cell          1.00 
      655 x_cell_20_9.                    sram_cell          1.00 
      656 x_cell_20_10.                   sram_cell          1.00 
      657 x_cell_20_11.                   sram_cell          1.00 
      658 x_cell_20_12.                   sram_cell          1.00 
      659 x_cell_20_13.                   sram_cell          1.00 
      660 x_cell_20_14.                   sram_cell          1.00 
      661 x_cell_20_15.                   sram_cell          1.00 
      662 x_cell_20_16.                   sram_cell          1.00 
      663 x_cell_20_17.                   sram_cell          1.00 
      664 x_cell_20_18.                   sram_cell          1.00 
      665 x_cell_20_19.                   sram_cell          1.00 
      666 x_cell_20_20.                   sram_cell          1.00 
      667 x_cell_20_21.                   sram_cell          1.00 
      668 x_cell_20_22.                   sram_cell          1.00 
      669 x_cell_20_23.                   sram_cell          1.00 
      670 x_cell_20_24.                   sram_cell          1.00 
      671 x_cell_20_25.                   sram_cell          1.00 
      672 x_cell_20_26.                   sram_cell          1.00 
      673 x_cell_20_27.                   sram_cell          1.00 
      674 x_cell_20_28.                   sram_cell          1.00 
      675 x_cell_20_29.                   sram_cell          1.00 
      676 x_cell_20_30.                   sram_cell          1.00 
      677 x_cell_20_31.                   sram_cell          1.00 
      678 x_cell_21_0.                    sram_cell          1.00 
      679 x_cell_21_1.                    sram_cell          1.00 
      680 x_cell_21_2.                    sram_cell          1.00 
      681 x_cell_21_3.                    sram_cell          1.00 
      682 x_cell_21_4.                    sram_cell          1.00 
      683 x_cell_21_5.                    sram_cell          1.00 
      684 x_cell_21_6.                    sram_cell          1.00 
      685 x_cell_21_7.                    sram_cell          1.00 
      686 x_cell_21_8.                    sram_cell          1.00 
      687 x_cell_21_9.                    sram_cell          1.00 
      688 x_cell_21_10.                   sram_cell          1.00 
      689 x_cell_21_11.                   sram_cell          1.00 
      690 x_cell_21_12.                   sram_cell          1.00 
      691 x_cell_21_13.                   sram_cell          1.00 
      692 x_cell_21_14.                   sram_cell          1.00 
      693 x_cell_21_15.                   sram_cell          1.00 
      694 x_cell_21_16.                   sram_cell          1.00 
      695 x_cell_21_17.                   sram_cell          1.00 
      696 x_cell_21_18.                   sram_cell          1.00 
      697 x_cell_21_19.                   sram_cell          1.00 
      698 x_cell_21_20.                   sram_cell          1.00 
      699 x_cell_21_21.                   sram_cell          1.00 
      700 x_cell_21_22.                   sram_cell          1.00 
      701 x_cell_21_23.                   sram_cell          1.00 
      702 x_cell_21_24.                   sram_cell          1.00 
      703 x_cell_21_25.                   sram_cell          1.00 
      704 x_cell_21_26.                   sram_cell          1.00 
      705 x_cell_21_27.                   sram_cell          1.00 
      706 x_cell_21_28.                   sram_cell          1.00 
      707 x_cell_21_29.                   sram_cell          1.00 
      708 x_cell_21_30.                   sram_cell          1.00 
      709 x_cell_21_31.                   sram_cell          1.00 
      710 x_cell_22_0.                    sram_cell          1.00 
      711 x_cell_22_1.                    sram_cell          1.00 
      712 x_cell_22_2.                    sram_cell          1.00 
      713 x_cell_22_3.                    sram_cell          1.00 
      714 x_cell_22_4.                    sram_cell          1.00 
      715 x_cell_22_5.                    sram_cell          1.00 
      716 x_cell_22_6.                    sram_cell          1.00 
      717 x_cell_22_7.                    sram_cell          1.00 
      718 x_cell_22_8.                    sram_cell          1.00 
      719 x_cell_22_9.                    sram_cell          1.00 
      720 x_cell_22_10.                   sram_cell          1.00 
      721 x_cell_22_11.                   sram_cell          1.00 
      722 x_cell_22_12.                   sram_cell          1.00 
      723 x_cell_22_13.                   sram_cell          1.00 
      724 x_cell_22_14.                   sram_cell          1.00 
      725 x_cell_22_15.                   sram_cell          1.00 
      726 x_cell_22_16.                   sram_cell          1.00 
      727 x_cell_22_17.                   sram_cell          1.00 
      728 x_cell_22_18.                   sram_cell          1.00 
      729 x_cell_22_19.                   sram_cell          1.00 
      730 x_cell_22_20.                   sram_cell          1.00 
      731 x_cell_22_21.                   sram_cell          1.00 
      732 x_cell_22_22.                   sram_cell          1.00 
      733 x_cell_22_23.                   sram_cell          1.00 
      734 x_cell_22_24.                   sram_cell          1.00 
      735 x_cell_22_25.                   sram_cell          1.00 
      736 x_cell_22_26.                   sram_cell          1.00 
      737 x_cell_22_27.                   sram_cell          1.00 
      738 x_cell_22_28.                   sram_cell          1.00 
      739 x_cell_22_29.                   sram_cell          1.00 
      740 x_cell_22_30.                   sram_cell          1.00 
      741 x_cell_22_31.                   sram_cell          1.00 
      742 x_cell_23_0.                    sram_cell          1.00 
      743 x_cell_23_1.                    sram_cell          1.00 
      744 x_cell_23_2.                    sram_cell          1.00 
      745 x_cell_23_3.                    sram_cell          1.00 
      746 x_cell_23_4.                    sram_cell          1.00 
      747 x_cell_23_5.                    sram_cell          1.00 
      748 x_cell_23_6.                    sram_cell          1.00 
      749 x_cell_23_7.                    sram_cell          1.00 
      750 x_cell_23_8.                    sram_cell          1.00 
      751 x_cell_23_9.                    sram_cell          1.00 
      752 x_cell_23_10.                   sram_cell          1.00 
      753 x_cell_23_11.                   sram_cell          1.00 
      754 x_cell_23_12.                   sram_cell          1.00 
      755 x_cell_23_13.                   sram_cell          1.00 
      756 x_cell_23_14.                   sram_cell          1.00 
      757 x_cell_23_15.                   sram_cell          1.00 
      758 x_cell_23_16.                   sram_cell          1.00 
      759 x_cell_23_17.                   sram_cell          1.00 
      760 x_cell_23_18.                   sram_cell          1.00 
      761 x_cell_23_19.                   sram_cell          1.00 
      762 x_cell_23_20.                   sram_cell          1.00 
      763 x_cell_23_21.                   sram_cell          1.00 
      764 x_cell_23_22.                   sram_cell          1.00 
      765 x_cell_23_23.                   sram_cell          1.00 
      766 x_cell_23_24.                   sram_cell          1.00 
      767 x_cell_23_25.                   sram_cell          1.00 
      768 x_cell_23_26.                   sram_cell          1.00 
      769 x_cell_23_27.                   sram_cell          1.00 
      770 x_cell_23_28.                   sram_cell          1.00 
      771 x_cell_23_29.                   sram_cell          1.00 
      772 x_cell_23_30.                   sram_cell          1.00 
      773 x_cell_23_31.                   sram_cell          1.00 
      774 x_cell_24_0.                    sram_cell          1.00 
      775 x_cell_24_1.                    sram_cell          1.00 
      776 x_cell_24_2.                    sram_cell          1.00 
      777 x_cell_24_3.                    sram_cell          1.00 
      778 x_cell_24_4.                    sram_cell          1.00 
      779 x_cell_24_5.                    sram_cell          1.00 
      780 x_cell_24_6.                    sram_cell          1.00 
      781 x_cell_24_7.                    sram_cell          1.00 
      782 x_cell_24_8.                    sram_cell          1.00 
      783 x_cell_24_9.                    sram_cell          1.00 
      784 x_cell_24_10.                   sram_cell          1.00 
      785 x_cell_24_11.                   sram_cell          1.00 
      786 x_cell_24_12.                   sram_cell          1.00 
      787 x_cell_24_13.                   sram_cell          1.00 
      788 x_cell_24_14.                   sram_cell          1.00 
      789 x_cell_24_15.                   sram_cell          1.00 
      790 x_cell_24_16.                   sram_cell          1.00 
      791 x_cell_24_17.                   sram_cell          1.00 
      792 x_cell_24_18.                   sram_cell          1.00 
      793 x_cell_24_19.                   sram_cell          1.00 
      794 x_cell_24_20.                   sram_cell          1.00 
      795 x_cell_24_21.                   sram_cell          1.00 
      796 x_cell_24_22.                   sram_cell          1.00 
      797 x_cell_24_23.                   sram_cell          1.00 
      798 x_cell_24_24.                   sram_cell          1.00 
      799 x_cell_24_25.                   sram_cell          1.00 
      800 x_cell_24_26.                   sram_cell          1.00 
      801 x_cell_24_27.                   sram_cell          1.00 
      802 x_cell_24_28.                   sram_cell          1.00 
      803 x_cell_24_29.                   sram_cell          1.00 
      804 x_cell_24_30.                   sram_cell          1.00 
      805 x_cell_24_31.                   sram_cell          1.00 
      806 x_cell_25_0.                    sram_cell          1.00 
      807 x_cell_25_1.                    sram_cell          1.00 
      808 x_cell_25_2.                    sram_cell          1.00 
      809 x_cell_25_3.                    sram_cell          1.00 
      810 x_cell_25_4.                    sram_cell          1.00 
      811 x_cell_25_5.                    sram_cell          1.00 
      812 x_cell_25_6.                    sram_cell          1.00 
      813 x_cell_25_7.                    sram_cell          1.00 
      814 x_cell_25_8.                    sram_cell          1.00 
      815 x_cell_25_9.                    sram_cell          1.00 
      816 x_cell_25_10.                   sram_cell          1.00 
      817 x_cell_25_11.                   sram_cell          1.00 
      818 x_cell_25_12.                   sram_cell          1.00 
      819 x_cell_25_13.                   sram_cell          1.00 
      820 x_cell_25_14.                   sram_cell          1.00 
      821 x_cell_25_15.                   sram_cell          1.00 
      822 x_cell_25_16.                   sram_cell          1.00 
      823 x_cell_25_17.                   sram_cell          1.00 
      824 x_cell_25_18.                   sram_cell          1.00 
      825 x_cell_25_19.                   sram_cell          1.00 
      826 x_cell_25_20.                   sram_cell          1.00 
      827 x_cell_25_21.                   sram_cell          1.00 
      828 x_cell_25_22.                   sram_cell          1.00 
      829 x_cell_25_23.                   sram_cell          1.00 
      830 x_cell_25_24.                   sram_cell          1.00 
      831 x_cell_25_25.                   sram_cell          1.00 
      832 x_cell_25_26.                   sram_cell          1.00 
      833 x_cell_25_27.                   sram_cell          1.00 
      834 x_cell_25_28.                   sram_cell          1.00 
      835 x_cell_25_29.                   sram_cell          1.00 
      836 x_cell_25_30.                   sram_cell          1.00 
      837 x_cell_25_31.                   sram_cell          1.00 
      838 x_cell_26_0.                    sram_cell          1.00 
      839 x_cell_26_1.                    sram_cell          1.00 
      840 x_cell_26_2.                    sram_cell          1.00 
      841 x_cell_26_3.                    sram_cell          1.00 
      842 x_cell_26_4.                    sram_cell          1.00 
      843 x_cell_26_5.                    sram_cell          1.00 
      844 x_cell_26_6.                    sram_cell          1.00 
      845 x_cell_26_7.                    sram_cell          1.00 
      846 x_cell_26_8.                    sram_cell          1.00 
      847 x_cell_26_9.                    sram_cell          1.00 
      848 x_cell_26_10.                   sram_cell          1.00 
      849 x_cell_26_11.                   sram_cell          1.00 
      850 x_cell_26_12.                   sram_cell          1.00 
      851 x_cell_26_13.                   sram_cell          1.00 
      852 x_cell_26_14.                   sram_cell          1.00 
      853 x_cell_26_15.                   sram_cell          1.00 
      854 x_cell_26_16.                   sram_cell          1.00 
      855 x_cell_26_17.                   sram_cell          1.00 
      856 x_cell_26_18.                   sram_cell          1.00 
      857 x_cell_26_19.                   sram_cell          1.00 
      858 x_cell_26_20.                   sram_cell          1.00 
      859 x_cell_26_21.                   sram_cell          1.00 
      860 x_cell_26_22.                   sram_cell          1.00 
      861 x_cell_26_23.                   sram_cell          1.00 
      862 x_cell_26_24.                   sram_cell          1.00 
      863 x_cell_26_25.                   sram_cell          1.00 
      864 x_cell_26_26.                   sram_cell          1.00 
      865 x_cell_26_27.                   sram_cell          1.00 
      866 x_cell_26_28.                   sram_cell          1.00 
      867 x_cell_26_29.                   sram_cell          1.00 
      868 x_cell_26_30.                   sram_cell          1.00 
      869 x_cell_26_31.                   sram_cell          1.00 
      870 x_cell_27_0.                    sram_cell          1.00 
      871 x_cell_27_1.                    sram_cell          1.00 
      872 x_cell_27_2.                    sram_cell          1.00 
      873 x_cell_27_3.                    sram_cell          1.00 
      874 x_cell_27_4.                    sram_cell          1.00 
      875 x_cell_27_5.                    sram_cell          1.00 
      876 x_cell_27_6.                    sram_cell          1.00 
      877 x_cell_27_7.                    sram_cell          1.00 
      878 x_cell_27_8.                    sram_cell          1.00 
      879 x_cell_27_9.                    sram_cell          1.00 
      880 x_cell_27_10.                   sram_cell          1.00 
      881 x_cell_27_11.                   sram_cell          1.00 
      882 x_cell_27_12.                   sram_cell          1.00 
      883 x_cell_27_13.                   sram_cell          1.00 
      884 x_cell_27_14.                   sram_cell          1.00 
      885 x_cell_27_15.                   sram_cell          1.00 
      886 x_cell_27_16.                   sram_cell          1.00 
      887 x_cell_27_17.                   sram_cell          1.00 
      888 x_cell_27_18.                   sram_cell          1.00 
      889 x_cell_27_19.                   sram_cell          1.00 
      890 x_cell_27_20.                   sram_cell          1.00 
      891 x_cell_27_21.                   sram_cell          1.00 
      892 x_cell_27_22.                   sram_cell          1.00 
      893 x_cell_27_23.                   sram_cell          1.00 
      894 x_cell_27_24.                   sram_cell          1.00 
      895 x_cell_27_25.                   sram_cell          1.00 
      896 x_cell_27_26.                   sram_cell          1.00 
      897 x_cell_27_27.                   sram_cell          1.00 
      898 x_cell_27_28.                   sram_cell          1.00 
      899 x_cell_27_29.                   sram_cell          1.00 
      900 x_cell_27_30.                   sram_cell          1.00 
      901 x_cell_27_31.                   sram_cell          1.00 
      902 x_cell_28_0.                    sram_cell          1.00 
      903 x_cell_28_1.                    sram_cell          1.00 
      904 x_cell_28_2.                    sram_cell          1.00 
      905 x_cell_28_3.                    sram_cell          1.00 
      906 x_cell_28_4.                    sram_cell          1.00 
      907 x_cell_28_5.                    sram_cell          1.00 
      908 x_cell_28_6.                    sram_cell          1.00 
      909 x_cell_28_7.                    sram_cell          1.00 
      910 x_cell_28_8.                    sram_cell          1.00 
      911 x_cell_28_9.                    sram_cell          1.00 
      912 x_cell_28_10.                   sram_cell          1.00 
      913 x_cell_28_11.                   sram_cell          1.00 
      914 x_cell_28_12.                   sram_cell          1.00 
      915 x_cell_28_13.                   sram_cell          1.00 
      916 x_cell_28_14.                   sram_cell          1.00 
      917 x_cell_28_15.                   sram_cell          1.00 
      918 x_cell_28_16.                   sram_cell          1.00 
      919 x_cell_28_17.                   sram_cell          1.00 
      920 x_cell_28_18.                   sram_cell          1.00 
      921 x_cell_28_19.                   sram_cell          1.00 
      922 x_cell_28_20.                   sram_cell          1.00 
      923 x_cell_28_21.                   sram_cell          1.00 
      924 x_cell_28_22.                   sram_cell          1.00 
      925 x_cell_28_23.                   sram_cell          1.00 
      926 x_cell_28_24.                   sram_cell          1.00 
      927 x_cell_28_25.                   sram_cell          1.00 
      928 x_cell_28_26.                   sram_cell          1.00 
      929 x_cell_28_27.                   sram_cell          1.00 
      930 x_cell_28_28.                   sram_cell          1.00 
      931 x_cell_28_29.                   sram_cell          1.00 
      932 x_cell_28_30.                   sram_cell          1.00 
      933 x_cell_28_31.                   sram_cell          1.00 
      934 x_cell_29_0.                    sram_cell          1.00 
      935 x_cell_29_1.                    sram_cell          1.00 
      936 x_cell_29_2.                    sram_cell          1.00 
      937 x_cell_29_3.                    sram_cell          1.00 
      938 x_cell_29_4.                    sram_cell          1.00 
      939 x_cell_29_5.                    sram_cell          1.00 
      940 x_cell_29_6.                    sram_cell          1.00 
      941 x_cell_29_7.                    sram_cell          1.00 
      942 x_cell_29_8.                    sram_cell          1.00 
      943 x_cell_29_9.                    sram_cell          1.00 
      944 x_cell_29_10.                   sram_cell          1.00 
      945 x_cell_29_11.                   sram_cell          1.00 
      946 x_cell_29_12.                   sram_cell          1.00 
      947 x_cell_29_13.                   sram_cell          1.00 
      948 x_cell_29_14.                   sram_cell          1.00 
      949 x_cell_29_15.                   sram_cell          1.00 
      950 x_cell_29_16.                   sram_cell          1.00 
      951 x_cell_29_17.                   sram_cell          1.00 
      952 x_cell_29_18.                   sram_cell          1.00 
      953 x_cell_29_19.                   sram_cell          1.00 
      954 x_cell_29_20.                   sram_cell          1.00 
      955 x_cell_29_21.                   sram_cell          1.00 
      956 x_cell_29_22.                   sram_cell          1.00 
      957 x_cell_29_23.                   sram_cell          1.00 
      958 x_cell_29_24.                   sram_cell          1.00 
      959 x_cell_29_25.                   sram_cell          1.00 
      960 x_cell_29_26.                   sram_cell          1.00 
      961 x_cell_29_27.                   sram_cell          1.00 
      962 x_cell_29_28.                   sram_cell          1.00 
      963 x_cell_29_29.                   sram_cell          1.00 
      964 x_cell_29_30.                   sram_cell          1.00 
      965 x_cell_29_31.                   sram_cell          1.00 
      966 x_cell_30_0.                    sram_cell          1.00 
      967 x_cell_30_1.                    sram_cell          1.00 
      968 x_cell_30_2.                    sram_cell          1.00 
      969 x_cell_30_3.                    sram_cell          1.00 
      970 x_cell_30_4.                    sram_cell          1.00 
      971 x_cell_30_5.                    sram_cell          1.00 
      972 x_cell_30_6.                    sram_cell          1.00 
      973 x_cell_30_7.                    sram_cell          1.00 
      974 x_cell_30_8.                    sram_cell          1.00 
      975 x_cell_30_9.                    sram_cell          1.00 
      976 x_cell_30_10.                   sram_cell          1.00 
      977 x_cell_30_11.                   sram_cell          1.00 
      978 x_cell_30_12.                   sram_cell          1.00 
      979 x_cell_30_13.                   sram_cell          1.00 
      980 x_cell_30_14.                   sram_cell          1.00 
      981 x_cell_30_15.                   sram_cell          1.00 
      982 x_cell_30_16.                   sram_cell          1.00 
      983 x_cell_30_17.                   sram_cell          1.00 
      984 x_cell_30_18.                   sram_cell          1.00 
      985 x_cell_30_19.                   sram_cell          1.00 
      986 x_cell_30_20.                   sram_cell          1.00 
      987 x_cell_30_21.                   sram_cell          1.00 
      988 x_cell_30_22.                   sram_cell          1.00 
      989 x_cell_30_23.                   sram_cell          1.00 
      990 x_cell_30_24.                   sram_cell          1.00 
      991 x_cell_30_25.                   sram_cell          1.00 
      992 x_cell_30_26.                   sram_cell          1.00 
      993 x_cell_30_27.                   sram_cell          1.00 
      994 x_cell_30_28.                   sram_cell          1.00 
      995 x_cell_30_29.                   sram_cell          1.00 
      996 x_cell_30_30.                   sram_cell          1.00 
      997 x_cell_30_31.                   sram_cell          1.00 
      998 x_cell_31_0.                    sram_cell          1.00 
      999 x_cell_31_1.                    sram_cell          1.00 
     1000 x_cell_31_2.                    sram_cell          1.00 
     1001 x_cell_31_3.                    sram_cell          1.00 
     1002 x_cell_31_4.                    sram_cell          1.00 
     1003 x_cell_31_5.                    sram_cell          1.00 
     1004 x_cell_31_6.                    sram_cell          1.00 
     1005 x_cell_31_7.                    sram_cell          1.00 
     1006 x_cell_31_8.                    sram_cell          1.00 
     1007 x_cell_31_9.                    sram_cell          1.00 
     1008 x_cell_31_10.                   sram_cell          1.00 
     1009 x_cell_31_11.                   sram_cell          1.00 
     1010 x_cell_31_12.                   sram_cell          1.00 
     1011 x_cell_31_13.                   sram_cell          1.00 
     1012 x_cell_31_14.                   sram_cell          1.00 
     1013 x_cell_31_15.                   sram_cell          1.00 
     1014 x_cell_31_16.                   sram_cell          1.00 
     1015 x_cell_31_17.                   sram_cell          1.00 
     1016 x_cell_31_18.                   sram_cell          1.00 
     1017 x_cell_31_19.                   sram_cell          1.00 
     1018 x_cell_31_20.                   sram_cell          1.00 
     1019 x_cell_31_21.                   sram_cell          1.00 
     1020 x_cell_31_22.                   sram_cell          1.00 
     1021 x_cell_31_23.                   sram_cell          1.00 
     1022 x_cell_31_24.                   sram_cell          1.00 
     1023 x_cell_31_25.                   sram_cell          1.00 
     1024 x_cell_31_26.                   sram_cell          1.00 
     1025 x_cell_31_27.                   sram_cell          1.00 
     1026 x_cell_31_28.                   sram_cell          1.00 
     1027 x_cell_31_29.                   sram_cell          1.00 
     1028 x_cell_31_30.                   sram_cell          1.00 
     1029 x_cell_31_31.                   sram_cell          1.00 
     1030 x_cell_32_0.                    sram_cell          1.00 
     1031 x_cell_32_1.                    sram_cell          1.00 
     1032 x_cell_32_2.                    sram_cell          1.00 
     1033 x_cell_32_3.                    sram_cell          1.00 
     1034 x_cell_32_4.                    sram_cell          1.00 
     1035 x_cell_32_5.                    sram_cell          1.00 
     1036 x_cell_32_6.                    sram_cell          1.00 
     1037 x_cell_32_7.                    sram_cell          1.00 
     1038 x_cell_32_8.                    sram_cell          1.00 
     1039 x_cell_32_9.                    sram_cell          1.00 
     1040 x_cell_32_10.                   sram_cell          1.00 
     1041 x_cell_32_11.                   sram_cell          1.00 
     1042 x_cell_32_12.                   sram_cell          1.00 
     1043 x_cell_32_13.                   sram_cell          1.00 
     1044 x_cell_32_14.                   sram_cell          1.00 
     1045 x_cell_32_15.                   sram_cell          1.00 
     1046 x_cell_32_16.                   sram_cell          1.00 
     1047 x_cell_32_17.                   sram_cell          1.00 
     1048 x_cell_32_18.                   sram_cell          1.00 
     1049 x_cell_32_19.                   sram_cell          1.00 
     1050 x_cell_32_20.                   sram_cell          1.00 
     1051 x_cell_32_21.                   sram_cell          1.00 
     1052 x_cell_32_22.                   sram_cell          1.00 
     1053 x_cell_32_23.                   sram_cell          1.00 
     1054 x_cell_32_24.                   sram_cell          1.00 
     1055 x_cell_32_25.                   sram_cell          1.00 
     1056 x_cell_32_26.                   sram_cell          1.00 
     1057 x_cell_32_27.                   sram_cell          1.00 
     1058 x_cell_32_28.                   sram_cell          1.00 
     1059 x_cell_32_29.                   sram_cell          1.00 
     1060 x_cell_32_30.                   sram_cell          1.00 
     1061 x_cell_32_31.                   sram_cell          1.00 
     1062 x_cell_33_0.                    sram_cell          1.00 
     1063 x_cell_33_1.                    sram_cell          1.00 
     1064 x_cell_33_2.                    sram_cell          1.00 
     1065 x_cell_33_3.                    sram_cell          1.00 
     1066 x_cell_33_4.                    sram_cell          1.00 
     1067 x_cell_33_5.                    sram_cell          1.00 
     1068 x_cell_33_6.                    sram_cell          1.00 
     1069 x_cell_33_7.                    sram_cell          1.00 
     1070 x_cell_33_8.                    sram_cell          1.00 
     1071 x_cell_33_9.                    sram_cell          1.00 
     1072 x_cell_33_10.                   sram_cell          1.00 
     1073 x_cell_33_11.                   sram_cell          1.00 
     1074 x_cell_33_12.                   sram_cell          1.00 
     1075 x_cell_33_13.                   sram_cell          1.00 
     1076 x_cell_33_14.                   sram_cell          1.00 
     1077 x_cell_33_15.                   sram_cell          1.00 
     1078 x_cell_33_16.                   sram_cell          1.00 
     1079 x_cell_33_17.                   sram_cell          1.00 
     1080 x_cell_33_18.                   sram_cell          1.00 
     1081 x_cell_33_19.                   sram_cell          1.00 
     1082 x_cell_33_20.                   sram_cell          1.00 
     1083 x_cell_33_21.                   sram_cell          1.00 
     1084 x_cell_33_22.                   sram_cell          1.00 
     1085 x_cell_33_23.                   sram_cell          1.00 
     1086 x_cell_33_24.                   sram_cell          1.00 
     1087 x_cell_33_25.                   sram_cell          1.00 
     1088 x_cell_33_26.                   sram_cell          1.00 
     1089 x_cell_33_27.                   sram_cell          1.00 
     1090 x_cell_33_28.                   sram_cell          1.00 
     1091 x_cell_33_29.                   sram_cell          1.00 
     1092 x_cell_33_30.                   sram_cell          1.00 
     1093 x_cell_33_31.                   sram_cell          1.00 
     1094 x_cell_34_0.                    sram_cell          1.00 
     1095 x_cell_34_1.                    sram_cell          1.00 
     1096 x_cell_34_2.                    sram_cell          1.00 
     1097 x_cell_34_3.                    sram_cell          1.00 
     1098 x_cell_34_4.                    sram_cell          1.00 
     1099 x_cell_34_5.                    sram_cell          1.00 
     1100 x_cell_34_6.                    sram_cell          1.00 
     1101 x_cell_34_7.                    sram_cell          1.00 
     1102 x_cell_34_8.                    sram_cell          1.00 
     1103 x_cell_34_9.                    sram_cell          1.00 
     1104 x_cell_34_10.                   sram_cell          1.00 
     1105 x_cell_34_11.                   sram_cell          1.00 
     1106 x_cell_34_12.                   sram_cell          1.00 
     1107 x_cell_34_13.                   sram_cell          1.00 
     1108 x_cell_34_14.                   sram_cell          1.00 
     1109 x_cell_34_15.                   sram_cell          1.00 
     1110 x_cell_34_16.                   sram_cell          1.00 
     1111 x_cell_34_17.                   sram_cell          1.00 
     1112 x_cell_34_18.                   sram_cell          1.00 
     1113 x_cell_34_19.                   sram_cell          1.00 
     1114 x_cell_34_20.                   sram_cell          1.00 
     1115 x_cell_34_21.                   sram_cell          1.00 
     1116 x_cell_34_22.                   sram_cell          1.00 
     1117 x_cell_34_23.                   sram_cell          1.00 
     1118 x_cell_34_24.                   sram_cell          1.00 
     1119 x_cell_34_25.                   sram_cell          1.00 
     1120 x_cell_34_26.                   sram_cell          1.00 
     1121 x_cell_34_27.                   sram_cell          1.00 
     1122 x_cell_34_28.                   sram_cell          1.00 
     1123 x_cell_34_29.                   sram_cell          1.00 
     1124 x_cell_34_30.                   sram_cell          1.00 
     1125 x_cell_34_31.                   sram_cell          1.00 
     1126 x_cell_35_0.                    sram_cell          1.00 
     1127 x_cell_35_1.                    sram_cell          1.00 
     1128 x_cell_35_2.                    sram_cell          1.00 
     1129 x_cell_35_3.                    sram_cell          1.00 
     1130 x_cell_35_4.                    sram_cell          1.00 
     1131 x_cell_35_5.                    sram_cell          1.00 
     1132 x_cell_35_6.                    sram_cell          1.00 
     1133 x_cell_35_7.                    sram_cell          1.00 
     1134 x_cell_35_8.                    sram_cell          1.00 
     1135 x_cell_35_9.                    sram_cell          1.00 
     1136 x_cell_35_10.                   sram_cell          1.00 
     1137 x_cell_35_11.                   sram_cell          1.00 
     1138 x_cell_35_12.                   sram_cell          1.00 
     1139 x_cell_35_13.                   sram_cell          1.00 
     1140 x_cell_35_14.                   sram_cell          1.00 
     1141 x_cell_35_15.                   sram_cell          1.00 
     1142 x_cell_35_16.                   sram_cell          1.00 
     1143 x_cell_35_17.                   sram_cell          1.00 
     1144 x_cell_35_18.                   sram_cell          1.00 
     1145 x_cell_35_19.                   sram_cell          1.00 
     1146 x_cell_35_20.                   sram_cell          1.00 
     1147 x_cell_35_21.                   sram_cell          1.00 
     1148 x_cell_35_22.                   sram_cell          1.00 
     1149 x_cell_35_23.                   sram_cell          1.00 
     1150 x_cell_35_24.                   sram_cell          1.00 
     1151 x_cell_35_25.                   sram_cell          1.00 
     1152 x_cell_35_26.                   sram_cell          1.00 
     1153 x_cell_35_27.                   sram_cell          1.00 
     1154 x_cell_35_28.                   sram_cell          1.00 
     1155 x_cell_35_29.                   sram_cell          1.00 
     1156 x_cell_35_30.                   sram_cell          1.00 
     1157 x_cell_35_31.                   sram_cell          1.00 
     1158 x_cell_36_0.                    sram_cell          1.00 
     1159 x_cell_36_1.                    sram_cell          1.00 
     1160 x_cell_36_2.                    sram_cell          1.00 
     1161 x_cell_36_3.                    sram_cell          1.00 
     1162 x_cell_36_4.                    sram_cell          1.00 
     1163 x_cell_36_5.                    sram_cell          1.00 
     1164 x_cell_36_6.                    sram_cell          1.00 
     1165 x_cell_36_7.                    sram_cell          1.00 
     1166 x_cell_36_8.                    sram_cell          1.00 
     1167 x_cell_36_9.                    sram_cell          1.00 
[...]
 +1948:q       = 183.3932a 1948:qb      = 209.9278a 1949:q       = 183.3932a
 +1949:qb      = 209.9278a 1950:q       = 183.3932a 1950:qb      = 209.9278a
 +1951:q       = 183.3932a 1951:qb      = 209.9278a 1952:q       = 183.3932a
 +1952:qb      = 209.9278a 1953:q       = 183.3932a 1953:qb      = 209.9278a
 +1954:q       = 183.3932a 1954:qb      = 209.9278a 1955:q       = 183.3932a
 +1955:qb      = 209.9278a 1956:q       = 183.3932a 1956:qb      = 209.9278a
 +1957:q       = 183.3932a 1957:qb      = 209.9278a 1958:q       = 183.3932a
 +1958:qb      = 209.9278a 1959:q       = 183.3932a 1959:qb      = 209.9278a
 +1960:q       = 183.3932a 1960:qb      = 209.9278a 1961:q       = 183.3932a
 +1961:qb      = 209.9278a 1962:q       = 183.3932a 1962:qb      = 209.9278a
 +1963:q       = 183.3932a 1963:qb      = 209.9278a 1964:q       = 183.3932a
 +1964:qb      = 209.9278a 1965:q       = 183.3932a 1965:qb      = 209.9278a
 +1966:q       = 183.3932a 1966:qb      = 209.9278a 1967:q       = 183.3932a
 +1967:qb      = 209.9278a 1968:q       = 183.3932a 1968:qb      = 209.9278a
 +1969:q       = 183.3932a 1969:qb      = 209.9278a 1970:q       = 183.3932a
 +1970:qb      = 209.9278a 1971:q       = 183.3932a 1971:qb      = 209.9278a
 +1972:q       = 183.3932a 1972:qb      = 209.9278a 1973:q       = 183.3932a
 +1973:qb      = 209.9278a 1974:q       = 183.3932a 1974:qb      = 209.9278a
 +1975:q       = 183.3932a 1975:qb      = 209.9278a 1976:q       = 183.3932a
 +1976:qb      = 209.9278a 1977:q       = 183.3932a 1977:qb      = 209.9278a
 +1978:q       = 183.3932a 1978:qb      = 209.9278a 1979:q       = 183.3932a
 +1979:qb      = 209.9278a 1980:q       = 183.3932a 1980:qb      = 209.9278a
 +1981:q       = 183.3932a 1981:qb      = 209.9278a 1982:q       = 183.3932a
 +1982:qb      = 209.9278a 1983:q       = 183.3932a 1983:qb      = 209.9278a
 +1984:q       = 183.3932a 1984:qb      = 209.9278a 1985:q       = 183.3932a
 +1985:qb      = 209.9278a 1986:q       = 183.3932a 1986:qb      = 209.9278a
 +1987:q       = 183.3932a 1987:qb      = 209.9278a 1988:q       = 183.3932a
 +1988:qb      = 209.9278a 1989:q       = 183.3932a 1989:qb      = 209.9278a
 +1990:q       = 183.3932a 1990:qb      = 209.9278a 1991:q       = 183.3932a
 +1991:qb      = 209.9278a 1992:q       = 183.3932a 1992:qb      = 209.9278a
 +1993:q       = 183.3932a 1993:qb      = 209.9278a 1994:q       = 183.3932a
 +1994:qb      = 209.9278a 1995:q       = 183.3932a 1995:qb      = 209.9278a
 +1996:q       = 183.3932a 1996:qb      = 209.9278a 1997:q       = 183.3932a
 +1997:qb      = 209.9278a 1998:q       = 183.3932a 1998:qb      = 209.9278a
 +1999:q       = 183.3932a 1999:qb      = 209.9278a 2000:q       = 183.3932a
 +2000:qb      = 209.9278a 2001:q       = 183.3932a 2001:qb      = 209.9278a
 +2002:q       = 183.3932a 2002:qb      = 209.9278a 2003:q       = 183.3932a
 +2003:qb      = 209.9278a 2004:q       = 183.3932a 2004:qb      = 209.9278a
 +2005:q       = 183.3932a 2005:qb      = 209.9278a 2006:q       = 183.3932a
 +2006:qb      = 209.9278a 2007:q       = 183.3932a 2007:qb      = 209.9278a
 +2008:q       = 183.3932a 2008:qb      = 209.9278a 2009:q       = 183.3932a
 +2009:qb      = 209.9278a 2010:q       = 183.3932a 2010:qb      = 209.9278a
 +2011:q       = 183.3932a 2011:qb      = 209.9278a 2012:q       = 183.3932a
 +2012:qb      = 209.9278a 2013:q       = 183.3932a 2013:qb      = 209.9278a
 +2014:q       = 183.3932a 2014:qb      = 209.9278a 2015:q       = 183.3932a
 +2015:qb      = 209.9278a 2016:q       = 183.3932a 2016:qb      = 209.9278a
 +2017:q       = 183.3932a 2017:qb      = 209.9278a 2018:q       = 183.3932a
 +2018:qb      = 209.9278a 2019:q       = 183.3932a 2019:qb      = 209.9278a
 +2020:q       = 183.3932a 2020:qb      = 209.9278a 2021:q       = 183.3932a
 +2021:qb      = 209.9278a 2022:q       = 183.3932a 2022:qb      = 209.9278a
 +2023:q       = 183.3932a 2023:qb      = 209.9278a 2024:q       = 183.3932a
 +2024:qb      = 209.9278a 2025:q       = 183.3932a 2025:qb      = 209.9278a
 +2026:q       = 183.3932a 2026:qb      = 209.9278a 2027:q       = 183.3932a
 +2027:qb      = 209.9278a 2028:q       = 183.3932a 2028:qb      = 209.9278a
 +2029:q       = 183.3932a 2029:qb      = 209.9278a 2030:q       = 183.3932a
 +2030:qb      = 209.9278a 2031:q       = 183.3932a 2031:qb      = 209.9278a
 +2032:q       = 183.3932a 2032:qb      = 209.9278a 2033:q       = 183.3932a
 +2033:qb      = 209.9278a 2034:q       = 183.3932a 2034:qb      = 209.9278a
 +2035:q       = 183.3932a 2035:qb      = 209.9278a 2036:q       = 183.3932a
 +2036:qb      = 209.9278a 2037:q       = 183.3932a 2037:qb      = 209.9278a
 +2038:q       = 183.3932a 2038:qb      = 209.9278a 2039:q       = 183.3932a
 +2039:qb      = 209.9278a 2040:q       = 183.3932a 2040:qb      = 209.9278a
 +2041:q       = 183.3932a 2041:qb      = 209.9278a 2042:q       = 183.3932a
 +2042:qb      = 209.9278a 2043:q       = 183.3932a 2043:qb      = 209.9278a
 +2044:q       = 183.3932a 2044:qb      = 209.9278a 2045:q       = 183.3932a
 +2045:qb      = 209.9278a 2046:q       = 183.3932a 2046:qb      = 209.9278a
 +2047:q       = 183.3932a 2047:qb      = 209.9278a 2048:q       = 183.3932a
 +2048:qb      = 209.9278a 2049:q       = 183.3932a 2049:qb      = 209.9278a
 +2050:q       = 183.3932a 2050:qb      = 209.9278a 2051:q       = 183.3932a
 +2051:qb      = 209.9278a 2052:q       = 183.3932a 2052:qb      = 209.9278a
 +2053:q       = 183.3932a 2053:qb      = 209.9278a 2054:bl_ch   = 392.6593a
 +2054:blb_ch  = 394.8665a 2054:d_in_b  = 221.2387a 2054:sense   = 365.2792a
 +2054:sense_b = 494.4778a 2055:bl_ch   = 392.6593a 2055:blb_ch  = 394.8665a
 +2055:d_in_b  = 221.2387a 2055:sense   = 365.2792a 2055:sense_b = 494.4778a
 +2056:bl_ch   = 394.8665a 2056:blb_ch  = 392.6593a 2056:d_in_b  = 218.9337a
 +2056:sense   = 365.3456a 2056:sense_b = 494.4372a 2057:bl_ch   = 392.6593a
 +2057:blb_ch  = 394.8665a 2057:d_in_b  = 221.2387a 2057:sense   = 365.2792a
 +2057:sense_b = 494.4778a 2058:bl_ch   = 394.8665a 2058:blb_ch  = 392.6593a
 +2058:d_in_b  = 218.9337a 2058:sense   = 365.3456a 2058:sense_b = 494.4372a
 +2059:bl_ch   = 394.8665a 2059:blb_ch  = 392.6593a 2059:d_in_b  = 218.9337a
 +2059:sense   = 365.3456a 2059:sense_b = 494.4372a 2060:bl_ch   = 392.6593a
 +2060:blb_ch  = 394.8665a 2060:d_in_b  = 221.2387a 2060:sense   = 365.2792a
 +2060:sense_b = 494.4778a 2061:bl_ch   = 392.6593a 2061:blb_ch  = 394.8665a
 +2061:d_in_b  = 221.2387a 2061:sense   = 365.2792a 2061:sense_b = 494.4778a
 +2062:bl_ch   = 392.6593a 2062:blb_ch  = 394.8665a 2062:d_in_b  = 221.2387a
 +2062:sense   = 365.2792a 2062:sense_b = 494.4778a 2063:bl_ch   = 394.8665a
 +2063:blb_ch  = 392.6593a 2063:d_in_b  = 218.9337a 2063:sense   = 365.3456a
 +2063:sense_b = 494.4372a 2064:bl_ch   = 392.6593a 2064:blb_ch  = 394.8665a
 +2064:d_in_b  = 221.2387a 2064:sense   = 365.2792a 2064:sense_b = 494.4778a
 +2065:bl_ch   = 392.6593a 2065:blb_ch  = 394.8665a 2065:d_in_b  = 221.2387a
 +2065:sense   = 365.2792a 2065:sense_b = 494.4778a 2066:bl_ch   = 394.8665a
 +2066:blb_ch  = 392.6593a 2066:d_in_b  = 218.9337a 2066:sense   = 365.3456a
 +2066:sense_b = 494.4372a 2067:bl_ch   = 392.6593a 2067:blb_ch  = 394.8665a
 +2067:d_in_b  = 221.2387a 2067:sense   = 365.2792a 2067:sense_b = 494.4778a
 +2068:bl_ch   = 392.6593a 2068:blb_ch  = 394.8665a 2068:d_in_b  = 221.2387a
 +2068:sense   = 365.2792a 2068:sense_b = 494.4778a 2069:bl_ch   = 392.6593a
 +2069:blb_ch  = 394.8665a 2069:d_in_b  = 221.2387a 2069:sense   = 365.2792a
 +2069:sense_b = 494.4778a 2070:n1      = 177.4190a 2071:n1      = 833.3229a
 +2072:n1      = 177.4190a 2073:n1      = 833.3229a 2074:n1      = 177.4190a
 +2075:n1      = 833.3229a 2076:n1      = 177.4190a 2077:n1      = 833.3229a
 +2078:n1      = 177.4190a 2079:n1      = 833.3229a 2080:n1      = 177.4190a
 +2081:n1      = 833.3229a 2082:n1      = 177.4190a 2083:n1      = 833.3229a
 +2084:n1      = 177.4190a 2085:n1      = 833.3229a 2086:n1      = 177.4190a
 +2087:n1      = 833.3229a 2088:n1      = 177.4190a 2089:n1      = 833.3229a
 +2090:n1      = 177.4190a 2091:n1      = 833.3229a 2092:n1      = 208.3307a
 +2093:n1      = 709.6759a 2094:n1      = 177.4190a 2095:n1      = 833.3229a
 +2096:n1      = 208.3307a 2097:n1      = 709.6759a 2098:n1      = 208.3307a
 +2099:n1      = 709.6759a 2100:n1      = 177.4190a 2101:n1      = 833.3229a
 +2102:n1      = 177.4190a 2103:n1      = 833.3229a 2104:n1      = 177.4190a
 +2105:n1      = 833.3229a 2106:n1      = 208.3307a 2107:n1      = 709.6759a
 +2108:n1      = 177.4190a 2109:n1      = 833.3229a 2110:n1      = 177.4190a
 +2111:n1      = 833.3229a 2112:n1      = 208.3307a 2113:n1      = 709.6759a
 +2114:n1      = 177.4190a 2115:n1      = 833.3229a 2116:n1      = 177.4190a
 +2117:n1      = 833.3229a 2118:n1      = 177.4190a 2119:n1      = 833.3229a
 +2123:n1      =  68.5769a 2157:n1      =  40.8900a 2161:a_b     = 281.4861a
 +2161:b_b     = 364.5465a 2161:y0_b    = 173.1707a 2161:y1_b    = 172.5948a
 +2161:y2_b    = 172.5948a 2161:y3_b    = 201.4338a 2162:a_b     = 281.4861a
 +2162:b_b     = 364.5465a 2162:y0_b    = 173.1707a 2162:y1_b    = 172.5948a
 +2162:y2_b    = 172.5948a 2162:y3_b    = 201.4338a 2163:a_b     = 281.4861a
 +2163:b_b     = 364.5465a 2163:y0_b    = 173.1707a 2163:y1_b    = 172.5948a
 +2163:y2_b    = 172.5948a 2163:y3_b    = 201.4338a 2164:n1      =  68.5769a
 +2164:n2      =  96.2637a 2164:n3      =  96.2637a 2168:n1      =  40.8900a
 +2168:n2      =  68.5769a 2168:n3      =  96.2637a 2172:n1      =  40.8900a
 +2172:n2      =  68.5769a 2172:n3      =  96.2637a 2176:n1      =  40.8900a
 +2176:n2      =  68.5769a 2176:n3      =  96.2637a 2180:n1      =  66.9587a
 +2180:n2      =  66.9587a 2180:n3      =  68.5769a 2184:n1      =  40.8900a
 +2184:n2      =  40.8900a 2184:n3      =  68.5769a 2188:n1      =  40.8900a
 +2188:n2      =  40.8900a 2188:n3      =  68.5769a 2192:n1      =  40.8900a
 +2192:n2      =  40.8900a 2192:n3      =  68.5769a 2196:n1      =  66.9587a
 +2196:n2      =  66.9587a 2196:n3      =  68.5769a 2200:n1      =  40.8900a
 +2200:n2      =  40.8900a 2200:n3      =  68.5769a 2204:n1      =  40.8900a
 +2204:n2      =  40.8900a 2204:n3      =  68.5769a 2208:n1      =  40.8900a
 +2208:n2      =  40.8900a 2208:n3      =  68.5769a 2212:n1      =  66.9587a
 +2212:n2      =  66.9587a 2212:n3      =  68.5769a 2216:n1      =  40.8900a
 +2216:n2      =  40.8900a 2216:n3      =  68.5769a 2220:n1      =  40.8900a
 +2220:n2      =  40.8900a 2220:n3      =  68.5769a 2224:n1      =  40.8900a
 +2224:n2      =  40.8900a 2224:n3      =  68.5769a 2228:n1      =  65.0133a
 +2228:n2      =  89.1366a 2228:n3      =  65.0133a 2232:n1      =  40.8900a
 +2232:n2      =  67.1345a 2232:n3      =  67.1345a 2236:n1      =  40.8900a
 +2236:n2      =  67.1345a 2236:n3      =  67.1345a 2240:n1      =  40.8900a
 +2240:n2      =  67.1345a 2240:n3      =  67.1345a 2244:n1      =  65.0802a
 +2244:n2      =  65.0802a 2244:n3      =  40.8900a 2248:n1      =  40.8900a
 +2248:n2      =  40.8900a 2248:n3      =  40.8900a 2252:n1      =  40.8900a
 +2252:n2      =  40.8900a 2252:n3      =  40.8900a 2256:n1      =  40.8900a
 +2256:n2      =  40.8900a 2256:n3      =  40.8900a 2260:n1      =  65.0802a
 +2260:n2      =  65.0802a 2260:n3      =  40.8900a 2264:n1      =  40.8900a
 +2264:n2      =  40.8900a 2264:n3      =  40.8900a 2268:n1      =  40.8900a
 +2268:n2      =  40.8900a 2268:n3      =  40.8900a 2272:n1      =  40.8900a
 +2272:n2      =  40.8900a 2272:n3      =  40.8900a 2276:n1      =  65.0802a
 +2276:n2      =  65.0802a 2276:n3      =  40.8900a 2280:n1      =  40.8900a
 +2280:n2      =  40.8900a 2280:n3      =  40.8900a 2284:n1      =  40.8900a
 +2284:n2      =  40.8900a 2284:n3      =  40.8900a 2288:n1      =  40.8900a
 +2288:n2      =  40.8900a 2288:n3      =  40.8900a 2292:n1      =  65.0133a
 +2292:n2      =  89.1366a 2292:n3      =  65.0133a 2296:n1      =  40.8900a
 +2296:n2      =  67.1345a 2296:n3      =  67.1345a 2300:n1      =  40.8900a
 +2300:n2      =  67.1345a 2300:n3      =  67.1345a 2304:n1      =  40.8900a
 +2304:n2      =  67.1345a 2304:n3      =  67.1345a 2308:n1      =  65.0802a
 +2308:n2      =  65.0802a 2308:n3      =  40.8900a 2312:n1      =  40.8900a
 +2312:n2      =  40.8900a 2312:n3      =  40.8900a 2316:n1      =  40.8900a
 +2316:n2      =  40.8900a 2316:n3      =  40.8900a 2320:n1      =  40.8900a
 +2320:n2      =  40.8900a 2320:n3      =  40.8900a 2324:n1      =  65.0802a
 +2324:n2      =  65.0802a 2324:n3      =  40.8900a 2328:n1      =  40.8900a
 +2328:n2      =  40.8900a 2328:n3      =  40.8900a 2332:n1      =  40.8900a
 +2332:n2      =  40.8900a 2332:n3      =  40.8900a 2336:n1      =  40.8900a
 +2336:n2      =  40.8900a 2336:n3      =  40.8900a 2340:n1      =  65.0802a
 +2340:n2      =  65.0802a 2340:n3      =  40.8900a 2344:n1      =  40.8900a
 +2344:n2      =  40.8900a 2344:n3      =  40.8900a 2348:n1      =  40.8900a
 +2348:n2      =  40.8900a 2348:n3      =  40.8900a 2352:n1      =  40.8900a
 +2352:n2      =  40.8900a 2352:n3      =  40.8900a 2356:n1      =  65.0133a
 +2356:n2      =  89.1366a 2356:n3      =  65.0133a 2360:n1      =  40.8900a
 +2360:n2      =  67.1345a 2360:n3      =  67.1345a 2364:n1      =  40.8900a
 +2364:n2      =  67.1345a 2364:n3      =  67.1345a 2368:n1      =  40.8900a
 +2368:n2      =  67.1345a 2368:n3      =  67.1345a 2372:n1      =  65.0802a
 +2372:n2      =  65.0802a 2372:n3      =  40.8900a 2376:n1      =  40.8900a
 +2376:n2      =  40.8900a 2376:n3      =  40.8900a 2380:n1      =  40.8900a
 +2380:n2      =  40.8900a 2380:n3      =  40.8900a 2384:n1      =  40.8900a
 +2384:n2      =  40.8900a 2384:n3      =  40.8900a 2388:n1      =  65.0802a
 +2388:n2      =  65.0802a 2388:n3      =  40.8900a 2392:n1      =  40.8900a
 +2392:n2      =  40.8900a 2392:n3      =  40.8900a 2396:n1      =  40.8900a
 +2396:n2      =  40.8900a 2396:n3      =  40.8900a 2400:n1      =  40.8900a
 +2400:n2      =  40.8900a 2400:n3      =  40.8900a 2404:n1      =  65.0802a
 +2404:n2      =  65.0802a 2404:n3      =  40.8900a 2408:n1      =  40.8900a
 +2408:n2      =  40.8900a 2408:n3      =  40.8900a 2412:n1      =  40.8900a
 +2412:n2      =  40.8900a 2412:n3      =  40.8900a 2416:n1      =  40.8900a
 +2416:n2      =  40.8900a 2416:n3      =  40.8900a 2424:wr_en_b = 223.0672a
 +2425:di      = 182.5715a 2425:dib     = 181.7952a 2425:tail    = 234.1608a
 +2431:wr_en_b = 223.0672a 2432:di      = 182.5715a 2432:dib     = 181.7952a
 +2432:tail    = 234.1608a 2438:wr_en_b = 223.0672a 2439:di      = 181.7951a
 +2439:dib     = 182.5715a 2439:tail    = 234.1608a 2445:wr_en_b = 223.0672a
 +2446:di      = 182.5715a 2446:dib     = 181.7952a 2446:tail    = 234.1608a
 +2452:wr_en_b = 223.0672a 2453:di      = 181.7951a 2453:dib     = 182.5715a
 +2453:tail    = 234.1608a 2459:wr_en_b = 223.0672a 2460:di      = 181.7951a
 +2460:dib     = 182.5715a 2460:tail    = 234.1608a 2466:wr_en_b = 223.0672a
 +2467:di      = 182.5715a 2467:dib     = 181.7952a 2467:tail    = 234.1608a
 +2473:wr_en_b = 223.0672a 2474:di      = 182.5715a 2474:dib     = 181.7952a
 +2474:tail    = 234.1608a 2480:wr_en_b = 223.0672a 2481:di      = 182.5715a
 +2481:dib     = 181.7952a 2481:tail    = 234.1608a 2487:wr_en_b = 223.0672a
 +2488:di      = 181.7951a 2488:dib     = 182.5715a 2488:tail    = 234.1608a
 +2494:wr_en_b = 223.0672a 2495:di      = 182.5715a 2495:dib     = 181.7952a
 +2495:tail    = 234.1608a 2501:wr_en_b = 223.0672a 2502:di      = 182.5715a
 +2502:dib     = 181.7952a 2502:tail    = 234.1608a 2508:wr_en_b = 223.0672a
 +2509:di      = 181.7951a 2509:dib     = 182.5715a 2509:tail    = 234.1608a
 +2515:wr_en_b = 223.0672a 2516:di      = 182.5715a 2516:dib     = 181.7952a
 +2516:tail    = 234.1608a 2522:wr_en_b = 223.0672a 2523:di      = 182.5715a
 +2523:dib     = 181.7952a 2523:tail    = 234.1608a 2529:wr_en_b = 223.0672a
 +2530:di      = 182.5715a 2530:dib     = 181.7952a 2530:tail    = 234.1608a
 +2534:n1      = 833.3229a 2535:n1      = 833.3229a 2538:n1      = 833.3229a
 +2539:n1      = 833.3229a 2542:n1      = 833.3229a 2543:n1      = 833.3229a
 +2546:n1      = 833.3229a 2547:n1      = 833.3229a 2550:n1      = 709.6759a
 +2551:n1      = 709.6759a 2554:n1      = 709.6759a 2555:n1      = 709.6759a
 +2558:n1      = 709.6759a 2559:n1      = 709.6759a 2562:n1      = 709.6759a
 +2563:n1      = 709.6759a 2566:n1      = 709.6759a 2567:n1      = 709.6759a
 +2570:n1      = 709.6759a 2571:n1      = 709.6759a 2574:n1      = 709.6759a
 +2575:n1      = 709.6759a 2578:n1      = 833.3229a 2579:n1      = 833.3229a
 +2582:n1      = 709.6759a 2583:n1      = 709.6759a 2586:n1      = 833.3229a
 +2587:n1      = 833.3229a 2590:n1      = 833.3229a 2591:n1      = 833.3229a
 +2594:n1      = 709.6759a 2595:n1      = 709.6759a 2598:n1      = 709.6759a
 +2599:n1      = 709.6759a 2602:n1      = 709.6759a 2603:n1      = 709.6759a
 +2606:n1      = 833.3229a 2607:n1      = 833.3229a 2610:n1      = 709.6759a
 +2611:n1      = 709.6759a 2614:n1      = 709.6759a 2615:n1      = 709.6759a
 +2618:n1      = 833.3229a 2619:n1      = 833.3229a 2622:n1      = 709.6759a
 +2623:n1      = 709.6759a 2626:n1      = 709.6759a 2627:n1      = 709.6759a
 +2630:n1      = 709.6759a 2631:n1      = 709.6759a 2634:n1      =  96.2637a
 +2636:n1      =  68.5769a 2638:n1      =  40.8901a 2640:n1      =  40.8900a
 +2644:n1      =  96.2637a 2646:n1      =  68.5769a 2648:n1      =  40.8901a
 +2650:n1      =  40.8900a 2654:n1      =  96.2637a 2656:n1      =  68.5769a
 +2658:n1      =  40.8901a 2660:n1      =  40.8900a 2662:n1      = 709.6759a
 +2663:n1      = 709.6759a 2664:n1      = 709.6759a 2665:n1      = 709.6759a
 +2666:n1      = 709.6759a 2667:n1      = 709.6759a 2668:n1      = 709.6759a
 +2669:n1      = 709.6759a 2670:n1      = 709.6759a 2671:n1      = 709.6759a
 +2672:n1      = 709.6759a 2673:n1      = 709.6759a 2674:n1      = 709.6759a
 +2675:n1      = 709.6759a 2676:n1      = 709.6759a 2677:n1      = 709.6759a

 

          ***** job concluded
 ******  
 * ======================================================================

 ****** job statistics summary tnom=  25.000 temp=  25.000 ******
  
 ******  Machine Information  ******
 CPU:
 model name	: AMD EPYC 7763 64-Core Processor
 cpu MHz	: 1500.000
  
 OS:
 Linux version 3.10.0-1160.88.1.el7.x86_64 (mockbuild@kbuilder.bsys.centos.org) (gcc version 4.8.5 20150623 (Red Hat 4.8.5-44) (GCC) ) #1 SMP Tue Mar 7 15:41:52 UTC 2023


  ******  HSPICE Threads Information  ******

  Command Line Threads Count :     1
  Available CPU Count        :   256
  Actual Threads Count       :     1


  ******  Circuit Statistics  ******
  # nodes       =    5050 # elements   =   14230
  # resistors   =       0 # capacitors =       0 # inductors   =       0
  # mutual_inds =       0 # vccs       =       0 # vcvs        =       0
  # cccs        =       0 # ccvs       =       0 # volt_srcs   =      26
  # curr_srcs   =       0 # diodes     =       0 # bjts        =       0
  # jfets       =       0 # mosfets    =   14204 # U elements  =       0
  # T elements  =       0 # W elements =       0 # B elements  =       0
  # S elements  =       0 # P elements =       0 # va device   =       0
  # vector_srcs =       0 # N elements =       0


  ******  Runtime Statistics (seconds)  ******

  analysis           time    # points   tot. iter  conv.iter
  op point          19.35           1         389
  transient        145.86        1301       25216       13797 rev=       295
  readin             0.07
  errchk             0.33
  setup              0.34
  output             0.00


           peak memory used        627.42 megabytes
           total cpu time          166.89 seconds
           total elapsed time      167.02 seconds
           job started at     14:10:34 06/19/2026
           job ended   at     14:13:21 06/19/2026

>info:         ***** hspice job concluded
           job total runtime       167.02 seconds


 lic: Release hspice token(s) 
 lic: total license checkout elapse time:        0.10(s)
