$DATA1 SOURCE='HSPICE' VERSION='Q-2020.03-SP2-2 linux64' PARAM_COUNT=0
.TITLE '* ========================================================'
 trcd             tras             trp              temper          
 alter#          
  2.156e-08        2.749e-08        1.127e-09         85.0000       
1               
