****** HSPICE -- Q-2020.03-SP2-2 linux64 (Nov  1 2020) ******
Input File: ex3_3.sp
lic:
lic: FLEXlm: SDK_12.6
lic: USER:   es26mcs068           HOSTNAME: ee24
lic: HOSTID: "d85ed3efc3e3"       PID:      94462
lic: Using FLEXlm license file:
lic: 26585@lshc
lic: Checkout 1 hspice
lic: License/Maintenance for hspice will expire on 14-jun-2027/2026.03
lic: 676(in_use)/1235(total) FLOATING license(s) on SERVER 26585@lshc
lic:

 init: begin read circuit files, cpu clock= 1.07E-01
       option search = /usr/cad/synopsys/hspice/cur/hspice/Q-2020.03-SP2-2/hspice/parts/ad
       option search = /usr/cad/synopsys/hspice/cur/hspice/Q-2020.03-SP2-2/hspice/parts/behave
       option search = /usr/cad/synopsys/hspice/cur/hspice/Q-2020.03-SP2-2/hspice/parts/bjt
       option search = /usr/cad/synopsys/hspice/cur/hspice/Q-2020.03-SP2-2/hspice/parts/burr_brn
       option search = /usr/cad/synopsys/hspice/cur/hspice/Q-2020.03-SP2-2/hspice/parts/comlinear
       option search = /usr/cad/synopsys/hspice/cur/hspice/Q-2020.03-SP2-2/hspice/parts/dio
       option search = /usr/cad/synopsys/hspice/cur/hspice/Q-2020.03-SP2-2/hspice/parts/fet
       option search = /usr/cad/synopsys/hspice/cur/hspice/Q-2020.03-SP2-2/hspice/parts/lin_tech
       option search = /usr/cad/synopsys/hspice/cur/hspice/Q-2020.03-SP2-2/hspice/parts/pci
       option search = /usr/cad/synopsys/hspice/cur/hspice/Q-2020.03-SP2-2/hspice/parts/signet
       option search = /usr/cad/synopsys/hspice/cur/hspice/Q-2020.03-SP2-2/hspice/parts/ti
       option search = /usr/cad/synopsys/hspice/cur/hspice/Q-2020.03-SP2-2/hspice/parts/tline
       option search = /usr/cad/synopsys/hspice/cur/hspice/Q-2020.03-SP2-2/hspice/parts/xilinx
       option post
       option probe
       option cshunt =    1.000E-15
       option seed = random
 init: end read circuit files, cpu clock= 1.16E-01 peak memory=     399 mb
 init: begin check errors, cpu clock= 1.16E-01
 init: end check errors, cpu clock= 2.16E-01 peak memory=     401 mb
 init: begin setup matrix, pivot=     0 cpu clock= 2.16E-01
       establish matrix -- done, cpu clock= 2.16E-01 peak memory=     401 mb
       re-order matrix -- done, cpu clock= 2.16E-01 peak memory=     401 mb
 init: end setup matrix, cpu clock= 2.28E-01 peak memory=     402 mb
 dcop: begin dcop, cpu clock= 2.28E-01
 dcop: end dcop, cpu clock= 2.48E-01 peak memory=     402 mb tot_iter=      13
 sweep: monte_carlo     monte_carlo1     begin, #sweeps =1000
 dcop: begin dcop, cpu clock= 2.49E-01
 dcop: end dcop, cpu clock= 2.63E-01 peak memory=     402 mb tot_iter=      26
 output: ex3_3.mt0
 sweep: tran tran1    begin, stop_t=  5.00E-09 #sweeps= 101 cpu clock= 2.75E-01
 sweep: tran tran1    end, cpu clock= 2.93E-01 peak memory=     402 mb
 dcop: begin dcop, cpu clock= 2.95E-01
 dcop: end dcop, cpu clock= 2.99E-01 peak memory=     402 mb tot_iter=      36
 output: ex3_3.mt0
 sweep: tran tran2    begin, stop_t=  5.00E-09 #sweeps= 101 cpu clock= 2.99E-01
 sweep: tran tran2    end, cpu clock= 3.14E-01 peak memory=     402 mb
 dcop: begin dcop, cpu clock= 3.16E-01
 dcop: end dcop, cpu clock= 3.19E-01 peak memory=     402 mb tot_iter=      46
 output: ex3_3.mt0
 sweep: tran tran3    begin, stop_t=  5.00E-09 #sweeps= 101 cpu clock= 3.19E-01
 sweep: tran tran3    end, cpu clock= 3.34E-01 peak memory=     402 mb
 dcop: begin dcop, cpu clock= 3.35E-01
 dcop: end dcop, cpu clock= 3.39E-01 peak memory=     402 mb tot_iter=      56
 output: ex3_3.mt0
 sweep: tran tran4    begin, stop_t=  5.00E-09 #sweeps= 101 cpu clock= 3.39E-01
 sweep: tran tran4    end, cpu clock= 3.53E-01 peak memory=     402 mb
 dcop: begin dcop, cpu clock= 3.54E-01
 dcop: end dcop, cpu clock= 3.58E-01 peak memory=     402 mb tot_iter=      66
 output: ex3_3.mt0
 sweep: tran tran5    begin, stop_t=  5.00E-09 #sweeps= 101 cpu clock= 3.58E-01
 sweep: tran tran5    end, cpu clock= 3.72E-01 peak memory=     402 mb
 dcop: begin dcop, cpu clock= 3.74E-01
 dcop: end dcop, cpu clock= 3.77E-01 peak memory=     402 mb tot_iter=      75
 output: ex3_3.mt0
 sweep: tran tran6    begin, stop_t=  5.00E-09 #sweeps= 101 cpu clock= 3.77E-01
 sweep: tran tran6    end, cpu clock= 3.91E-01 peak memory=     402 mb
 dcop: begin dcop, cpu clock= 3.93E-01
 dcop: end dcop, cpu clock= 3.97E-01 peak memory=     402 mb tot_iter=      85
 output: ex3_3.mt0
 sweep: tran tran7    begin, stop_t=  5.00E-09 #sweeps= 101 cpu clock= 3.97E-01
 sweep: tran tran7    end, cpu clock= 4.11E-01 peak memory=     402 mb
 dcop: begin dcop, cpu clock= 4.12E-01
 dcop: end dcop, cpu clock= 4.16E-01 peak memory=     402 mb tot_iter=      95
 output: ex3_3.mt0
 sweep: tran tran8    begin, stop_t=  5.00E-09 #sweeps= 101 cpu clock= 4.16E-01
 sweep: tran tran8    end, cpu clock= 4.30E-01 peak memory=     402 mb
 dcop: begin dcop, cpu clock= 4.32E-01
 dcop: end dcop, cpu clock= 4.35E-01 peak memory=     402 mb tot_iter=     105
 output: ex3_3.mt0
 sweep: tran tran9    begin, stop_t=  5.00E-09 #sweeps= 101 cpu clock= 4.35E-01
 sweep: tran tran9    end, cpu clock= 4.46E-01 peak memory=     402 mb
 dcop: begin dcop, cpu clock= 4.48E-01
 dcop: end dcop, cpu clock= 4.51E-01 peak memory=     402 mb tot_iter=     115
 output: ex3_3.mt0
 sweep: tran tran10   begin, stop_t=  5.00E-09 #sweeps= 101 cpu clock= 4.51E-01
 sweep: tran tran10   end, cpu clock= 4.63E-01 peak memory=     402 mb
 dcop: begin dcop, cpu clock= 4.64E-01
 dcop: end dcop, cpu clock= 4.68E-01 peak memory=     402 mb tot_iter=     124
 output: ex3_3.mt0
 sweep: tran tran11   begin, stop_t=  5.00E-09 #sweeps= 101 cpu clock= 4.68E-01
 sweep: tran tran11   end, cpu clock= 4.78E-01 peak memory=     402 mb
 dcop: begin dcop, cpu clock= 4.80E-01
 dcop: end dcop, cpu clock= 4.83E-01 peak memory=     402 mb tot_iter=     134
 output: ex3_3.mt0
 sweep: tran tran12   begin, stop_t=  5.00E-09 #sweeps= 101 cpu clock= 4.83E-01
 sweep: tran tran12   end, cpu clock= 4.94E-01 peak memory=     402 mb
 dcop: begin dcop, cpu clock= 4.97E-01
 dcop: end dcop, cpu clock= 5.00E-01 peak memory=     402 mb tot_iter=     144
 output: ex3_3.mt0
 sweep: tran tran13   begin, stop_t=  5.00E-09 #sweeps= 101 cpu clock= 5.00E-01
 sweep: tran tran13   end, cpu clock= 5.11E-01 peak memory=     402 mb
 dcop: begin dcop, cpu clock= 5.13E-01
 dcop: end dcop, cpu clock= 5.15E-01 peak memory=     402 mb tot_iter=     153
 output: ex3_3.mt0
 sweep: tran tran14   begin, stop_t=  5.00E-09 #sweeps= 101 cpu clock= 5.15E-01
 sweep: tran tran14   end, cpu clock= 5.29E-01 peak memory=     402 mb
 dcop: begin dcop, cpu clock= 5.30E-01
 dcop: end dcop, cpu clock= 5.33E-01 peak memory=     402 mb tot_iter=     163
 output: ex3_3.mt0
 sweep: tran tran15   begin, stop_t=  5.00E-09 #sweeps= 101 cpu clock= 5.33E-01
 sweep: tran tran15   end, cpu clock= 5.42E-01 peak memory=     402 mb
 dcop: begin dcop, cpu clock= 5.44E-01
 dcop: end dcop, cpu clock= 5.45E-01 peak memory=     402 mb tot_iter=     173
 output: ex3_3.mt0
 sweep: tran tran16   begin, stop_t=  5.00E-09 #sweeps= 101 cpu clock= 5.45E-01
 sweep: tran tran16   end, cpu clock= 5.53E-01 peak memory=     402 mb
 dcop: begin dcop, cpu clock= 5.55E-01
 dcop: end dcop, cpu clock= 5.57E-01 peak memory=     402 mb tot_iter=     182
 output: ex3_3.mt0
 sweep: tran tran17   begin, stop_t=  5.00E-09 #sweeps= 101 cpu clock= 5.59E-01
 sweep: tran tran17   end, cpu clock= 5.67E-01 peak memory=     402 mb
 dcop: begin dcop, cpu clock= 5.68E-01
 dcop: end dcop, cpu clock= 5.70E-01 peak memory=     402 mb tot_iter=     192
 output: ex3_3.mt0
 sweep: tran tran18   begin, stop_t=  5.00E-09 #sweeps= 101 cpu clock= 5.72E-01
 sweep: tran tran18   end, cpu clock= 5.81E-01 peak memory=     402 mb
 dcop: begin dcop, cpu clock= 5.83E-01
 dcop: end dcop, cpu clock= 5.86E-01 peak memory=     402 mb tot_iter=     202
 output: ex3_3.mt0
 sweep: tran tran19   begin, stop_t=  5.00E-09 #sweeps= 101 cpu clock= 5.87E-01
 sweep: tran tran19   end, cpu clock= 5.96E-01 peak memory=     402 mb
 dcop: begin dcop, cpu clock= 5.98E-01
 dcop: end dcop, cpu clock= 6.00E-01 peak memory=     402 mb tot_iter=     212
 output: ex3_3.mt0
 sweep: tran tran20   begin, stop_t=  5.00E-09 #sweeps= 101 cpu clock= 6.00E-01
 sweep: tran tran20   end, cpu clock= 6.09E-01 peak memory=     402 mb
 dcop: begin dcop, cpu clock= 6.10E-01
 dcop: end dcop, cpu clock= 6.12E-01 peak memory=     402 mb tot_iter=     222
 output: ex3_3.mt0
 sweep: tran tran21   begin, stop_t=  5.00E-09 #sweeps= 101 cpu clock= 6.14E-01
 sweep: tran tran21   end, cpu clock= 6.24E-01 peak memory=     402 mb
 dcop: begin dcop, cpu clock= 6.25E-01
 dcop: end dcop, cpu clock= 6.28E-01 peak memory=     402 mb tot_iter=     232
 output: ex3_3.mt0
 sweep: tran tran22   begin, stop_t=  5.00E-09 #sweeps= 101 cpu clock= 6.29E-01
 sweep: tran tran22   end, cpu clock= 6.37E-01 peak memory=     402 mb
 dcop: begin dcop, cpu clock= 6.39E-01
 dcop: end dcop, cpu clock= 6.41E-01 peak memory=     402 mb tot_iter=     242
 output: ex3_3.mt0
 sweep: tran tran23   begin, stop_t=  5.00E-09 #sweeps= 101 cpu clock= 6.43E-01
 sweep: tran tran23   end, cpu clock= 6.51E-01 peak memory=     402 mb
 dcop: begin dcop, cpu clock= 6.52E-01
 dcop: end dcop, cpu clock= 6.54E-01 peak memory=     402 mb tot_iter=     252
 output: ex3_3.mt0
 sweep: tran tran24   begin, stop_t=  5.00E-09 #sweeps= 101 cpu clock= 6.56E-01
 sweep: tran tran24   end, cpu clock= 6.65E-01 peak memory=     402 mb
 dcop: begin dcop, cpu clock= 6.66E-01
 dcop: end dcop, cpu clock= 6.68E-01 peak memory=     402 mb tot_iter=     262
 output: ex3_3.mt0
 sweep: tran tran25   begin, stop_t=  5.00E-09 #sweeps= 101 cpu clock= 6.70E-01
 sweep: tran tran25   end, cpu clock= 6.78E-01 peak memory=     402 mb
 dcop: begin dcop, cpu clock= 6.81E-01
 dcop: end dcop, cpu clock= 6.83E-01 peak memory=     402 mb tot_iter=     272
 output: ex3_3.mt0
 sweep: tran tran26   begin, stop_t=  5.00E-09 #sweeps= 101 cpu clock= 6.85E-01
 sweep: tran tran26   end, cpu clock= 6.93E-01 peak memory=     402 mb
 dcop: begin dcop, cpu clock= 6.94E-01
 dcop: end dcop, cpu clock= 6.96E-01 peak memory=     402 mb tot_iter=     282
 output: ex3_3.mt0
 sweep: tran tran27   begin, stop_t=  5.00E-09 #sweeps= 101 cpu clock= 6.98E-01
 sweep: tran tran27   end, cpu clock= 7.07E-01 peak memory=     403 mb
 dcop: begin dcop, cpu clock= 7.11E-01
 dcop: end dcop, cpu clock= 7.14E-01 peak memory=     403 mb tot_iter=     292
 output: ex3_3.mt0
 sweep: tran tran28   begin, stop_t=  5.00E-09 #sweeps= 101 cpu clock= 7.14E-01
 sweep: tran tran28   end, cpu clock= 7.23E-01 peak memory=     403 mb
 dcop: begin dcop, cpu clock= 7.23E-01
 dcop: end dcop, cpu clock= 7.25E-01 peak memory=     403 mb tot_iter=     302
 output: ex3_3.mt0
 sweep: tran tran29   begin, stop_t=  5.00E-09 #sweeps= 101 cpu clock= 7.27E-01
 sweep: tran tran29   end, cpu clock= 7.37E-01 peak memory=     403 mb
 dcop: begin dcop, cpu clock= 7.39E-01
 dcop: end dcop, cpu clock= 7.41E-01 peak memory=     403 mb tot_iter=     312
 output: ex3_3.mt0
 sweep: tran tran30   begin, stop_t=  5.00E-09 #sweeps= 101 cpu clock= 7.43E-01
 sweep: tran tran30   end, cpu clock= 7.52E-01 peak memory=     403 mb
 dcop: begin dcop, cpu clock= 7.53E-01
 dcop: end dcop, cpu clock= 7.55E-01 peak memory=     403 mb tot_iter=     322
 output: ex3_3.mt0
 sweep: tran tran31   begin, stop_t=  5.00E-09 #sweeps= 101 cpu clock= 7.57E-01
 sweep: tran tran31   end, cpu clock= 7.67E-01 peak memory=     397 mb
 dcop: begin dcop, cpu clock= 7.69E-01
 dcop: end dcop, cpu clock= 7.71E-01 peak memory=     397 mb tot_iter=     332
 output: ex3_3.mt0
 sweep: tran tran32   begin, stop_t=  5.00E-09 #sweeps= 101 cpu clock= 7.71E-01
 sweep: tran tran32   end, cpu clock= 7.80E-01 peak memory=     397 mb
 dcop: begin dcop, cpu clock= 7.82E-01
 dcop: end dcop, cpu clock= 7.85E-01 peak memory=     397 mb tot_iter=     342
 output: ex3_3.mt0
 sweep: tran tran33   begin, stop_t=  5.00E-09 #sweeps= 101 cpu clock= 7.85E-01
 sweep: tran tran33   end, cpu clock= 7.93E-01 peak memory=     397 mb
 dcop: begin dcop, cpu clock= 7.95E-01
 dcop: end dcop, cpu clock= 7.96E-01 peak memory=     397 mb tot_iter=     352
 output: ex3_3.mt0
 sweep: tran tran34   begin, stop_t=  5.00E-09 #sweeps= 101 cpu clock= 7.96E-01
 sweep: tran tran34   end, cpu clock= 8.05E-01 peak memory=     397 mb
 dcop: begin dcop, cpu clock= 8.09E-01
 dcop: end dcop, cpu clock= 8.10E-01 peak memory=     397 mb tot_iter=     362
 output: ex3_3.mt0
 sweep: tran tran35   begin, stop_t=  5.00E-09 #sweeps= 101 cpu clock= 8.10E-01
 sweep: tran tran35   end, cpu clock= 8.20E-01 peak memory=     397 mb
 dcop: begin dcop, cpu clock= 8.22E-01
 dcop: end dcop, cpu clock= 8.24E-01 peak memory=     397 mb tot_iter=     372
 output: ex3_3.mt0
 sweep: tran tran36   begin, stop_t=  5.00E-09 #sweeps= 101 cpu clock= 8.24E-01
 sweep: tran tran36   end, cpu clock= 8.32E-01 peak memory=     397 mb
 dcop: begin dcop, cpu clock= 8.33E-01
 dcop: end dcop, cpu clock= 8.37E-01 peak memory=     397 mb tot_iter=     382
 output: ex3_3.mt0
 sweep: tran tran37   begin, stop_t=  5.00E-09 #sweeps= 101 cpu clock= 8.40E-01
 sweep: tran tran37   end, cpu clock= 8.51E-01 peak memory=     397 mb
 dcop: begin dcop, cpu clock= 8.51E-01
 dcop: end dcop, cpu clock= 8.52E-01 peak memory=     397 mb tot_iter=     392
 output: ex3_3.mt0
 sweep: tran tran38   begin, stop_t=  5.00E-09 #sweeps= 101 cpu clock= 8.52E-01
 sweep: tran tran38   end, cpu clock= 8.60E-01 peak memory=     397 mb
 dcop: begin dcop, cpu clock= 8.61E-01
 dcop: end dcop, cpu clock= 8.62E-01 peak memory=     397 mb tot_iter=     402
 output: ex3_3.mt0
 sweep: tran tran39   begin, stop_t=  5.00E-09 #sweeps= 101 cpu clock= 8.62E-01
 sweep: tran tran39   end, cpu clock= 8.87E-01 peak memory=     397 mb
 dcop: begin dcop, cpu clock= 8.89E-01
 dcop: end dcop, cpu clock= 8.93E-01 peak memory=     397 mb tot_iter=     412
 output: ex3_3.mt0
 sweep: tran tran40   begin, stop_t=  5.00E-09 #sweeps= 101 cpu clock= 8.93E-01
 sweep: tran tran40   end, cpu clock= 9.01E-01 peak memory=     397 mb
 dcop: begin dcop, cpu clock= 9.03E-01
 dcop: end dcop, cpu clock= 9.07E-01 peak memory=     397 mb tot_iter=     422
 output: ex3_3.mt0
 sweep: tran tran41   begin, stop_t=  5.00E-09 #sweeps= 101 cpu clock= 9.07E-01
 sweep: tran tran41   end, cpu clock= 9.15E-01 peak memory=     397 mb
 dcop: begin dcop, cpu clock= 9.16E-01
 dcop: end dcop, cpu clock= 9.18E-01 peak memory=     397 mb tot_iter=     431
 output: ex3_3.mt0
 sweep: tran tran42   begin, stop_t=  5.00E-09 #sweeps= 101 cpu clock= 9.20E-01
 sweep: tran tran42   end, cpu clock= 9.30E-01 peak memory=     397 mb
 dcop: begin dcop, cpu clock= 9.31E-01
 dcop: end dcop, cpu clock= 9.35E-01 peak memory=     397 mb tot_iter=     441
 output: ex3_3.mt0
 sweep: tran tran43   begin, stop_t=  5.00E-09 #sweeps= 101 cpu clock= 9.37E-01
 sweep: tran tran43   end, cpu clock= 9.48E-01 peak memory=     397 mb
 dcop: begin dcop, cpu clock= 9.49E-01
 dcop: end dcop, cpu clock= 9.52E-01 peak memory=     397 mb tot_iter=     451
 output: ex3_3.mt0
 sweep: tran tran44   begin, stop_t=  5.00E-09 #sweeps= 101 cpu clock= 9.52E-01
 sweep: tran tran44   end, cpu clock= 9.63E-01 peak memory=     397 mb
 dcop: begin dcop, cpu clock= 9.65E-01
 dcop: end dcop, cpu clock= 9.69E-01 peak memory=     397 mb tot_iter=     461
 output: ex3_3.mt0
 sweep: tran tran45   begin, stop_t=  5.00E-09 #sweeps= 101 cpu clock= 9.69E-01
 sweep: tran tran45   end, cpu clock= 9.78E-01 peak memory=     397 mb
 dcop: begin dcop, cpu clock= 9.79E-01
 dcop: end dcop, cpu clock= 9.82E-01 peak memory=     397 mb tot_iter=     471
 output: ex3_3.mt0
 sweep: tran tran46   begin, stop_t=  5.00E-09 #sweeps= 101 cpu clock= 9.85E-01
 sweep: tran tran46   end, cpu clock= 9.97E-01 peak memory=     397 mb
 dcop: begin dcop, cpu clock= 9.99E-01
 dcop: end dcop, cpu clock= 1.00E+00 peak memory=     397 mb tot_iter=     481
 output: ex3_3.mt0
 sweep: tran tran47   begin, stop_t=  5.00E-09 #sweeps= 101 cpu clock= 1.00E+00
 sweep: tran tran47   end, cpu clock= 1.01E+00 peak memory=     397 mb
 dcop: begin dcop, cpu clock= 1.01E+00
 dcop: end dcop, cpu clock= 1.02E+00 peak memory=     397 mb tot_iter=     491
 output: ex3_3.mt0
 sweep: tran tran48   begin, stop_t=  5.00E-09 #sweeps= 101 cpu clock= 1.02E+00
 sweep: tran tran48   end, cpu clock= 1.03E+00 peak memory=     397 mb
 dcop: begin dcop, cpu clock= 1.03E+00
 dcop: end dcop, cpu clock= 1.03E+00 peak memory=     397 mb tot_iter=     501
 output: ex3_3.mt0
 sweep: tran tran49   begin, stop_t=  5.00E-09 #sweeps= 101 cpu clock= 1.03E+00
 sweep: tran tran49   end, cpu clock= 1.05E+00 peak memory=     397 mb
 dcop: begin dcop, cpu clock= 1.05E+00
 dcop: end dcop, cpu clock= 1.05E+00 peak memory=     397 mb tot_iter=     511
 output: ex3_3.mt0
 sweep: tran tran50   begin, stop_t=  5.00E-09 #sweeps= 101 cpu clock= 1.05E+00
 sweep: tran tran50   end, cpu clock= 1.06E+00 peak memory=     397 mb
 dcop: begin dcop, cpu clock= 1.06E+00
 dcop: end dcop, cpu clock= 1.06E+00 peak memory=     397 mb tot_iter=     521
 output: ex3_3.mt0
 sweep: tran tran51   begin, stop_t=  5.00E-09 #sweeps= 101 cpu clock= 1.06E+00
 sweep: tran tran51   end, cpu clock= 1.07E+00 peak memory=     397 mb
 dcop: begin dcop, cpu clock= 1.08E+00
 dcop: end dcop, cpu clock= 1.08E+00 peak memory=     397 mb tot_iter=     531
 output: ex3_3.mt0
 sweep: tran tran52   begin, stop_t=  5.00E-09 #sweeps= 101 cpu clock= 1.08E+00
 sweep: tran tran52   end, cpu clock= 1.09E+00 peak memory=     397 mb
 dcop: begin dcop, cpu clock= 1.10E+00
 dcop: end dcop, cpu clock= 1.10E+00 peak memory=     397 mb tot_iter=     541
 output: ex3_3.mt0
 sweep: tran tran53   begin, stop_t=  5.00E-09 #sweeps= 101 cpu clock= 1.10E+00
 sweep: tran tran53   end, cpu clock= 1.11E+00 peak memory=     397 mb
 dcop: begin dcop, cpu clock= 1.11E+00
 dcop: end dcop, cpu clock= 1.12E+00 peak memory=     397 mb tot_iter=     551
 output: ex3_3.mt0
 sweep: tran tran54   begin, stop_t=  5.00E-09 #sweeps= 101 cpu clock= 1.12E+00
 sweep: tran tran54   end, cpu clock= 1.13E+00 peak memory=     397 mb
 dcop: begin dcop, cpu clock= 1.13E+00
 dcop: end dcop, cpu clock= 1.13E+00 peak memory=     397 mb tot_iter=     561
 output: ex3_3.mt0
 sweep: tran tran55   begin, stop_t=  5.00E-09 #sweeps= 101 cpu clock= 1.13E+00
 sweep: tran tran55   end, cpu clock= 1.15E+00 peak memory=     397 mb
 dcop: begin dcop, cpu clock= 1.15E+00
 dcop: end dcop, cpu clock= 1.15E+00 peak memory=     397 mb tot_iter=     571
 output: ex3_3.mt0
 sweep: tran tran56   begin, stop_t=  5.00E-09 #sweeps= 101 cpu clock= 1.15E+00
 sweep: tran tran56   end, cpu clock= 1.16E+00 peak memory=     397 mb
 dcop: begin dcop, cpu clock= 1.16E+00
 dcop: end dcop, cpu clock= 1.16E+00 peak memory=     397 mb tot_iter=     581
 output: ex3_3.mt0
 sweep: tran tran57   begin, stop_t=  5.00E-09 #sweeps= 101 cpu clock= 1.16E+00
 sweep: tran tran57   end, cpu clock= 1.17E+00 peak memory=     397 mb
 dcop: begin dcop, cpu clock= 1.17E+00
 dcop: end dcop, cpu clock= 1.18E+00 peak memory=     397 mb tot_iter=     591
 output: ex3_3.mt0
 sweep: tran tran58   begin, stop_t=  5.00E-09 #sweeps= 101 cpu clock= 1.18E+00
 sweep: tran tran58   end, cpu clock= 1.19E+00 peak memory=     397 mb
 dcop: begin dcop, cpu clock= 1.19E+00
 dcop: end dcop, cpu clock= 1.19E+00 peak memory=     397 mb tot_iter=     601
 output: ex3_3.mt0
 sweep: tran tran59   begin, stop_t=  5.00E-09 #sweeps= 101 cpu clock= 1.19E+00
 sweep: tran tran59   end, cpu clock= 1.20E+00 peak memory=     397 mb
 dcop: begin dcop, cpu clock= 1.20E+00
 dcop: end dcop, cpu clock= 1.21E+00 peak memory=     397 mb tot_iter=     611
 output: ex3_3.mt0
 sweep: tran tran60   begin, stop_t=  5.00E-09 #sweeps= 101 cpu clock= 1.21E+00
 sweep: tran tran60   end, cpu clock= 1.22E+00 peak memory=     397 mb
 dcop: begin dcop, cpu clock= 1.22E+00
 dcop: end dcop, cpu clock= 1.22E+00 peak memory=     397 mb tot_iter=     621
 output: ex3_3.mt0
 sweep: tran tran61   begin, stop_t=  5.00E-09 #sweeps= 101 cpu clock= 1.22E+00
 sweep: tran tran61   end, cpu clock= 1.23E+00 peak memory=     397 mb
 dcop: begin dcop, cpu clock= 1.23E+00
 dcop: end dcop, cpu clock= 1.24E+00 peak memory=     397 mb tot_iter=     631
 output: ex3_3.mt0
 sweep: tran tran62   begin, stop_t=  5.00E-09 #sweeps= 101 cpu clock= 1.24E+00
 sweep: tran tran62   end, cpu clock= 1.24E+00 peak memory=     397 mb
 dcop: begin dcop, cpu clock= 1.25E+00
 dcop: end dcop, cpu clock= 1.25E+00 peak memory=     397 mb tot_iter=     641
 output: ex3_3.mt0
 sweep: tran tran63   begin, stop_t=  5.00E-09 #sweeps= 101 cpu clock= 1.25E+00
 sweep: tran tran63   end, cpu clock= 1.26E+00 peak memory=     397 mb
 dcop: begin dcop, cpu clock= 1.26E+00
 dcop: end dcop, cpu clock= 1.27E+00 peak memory=     397 mb tot_iter=     651
 output: ex3_3.mt0
 sweep: tran tran64   begin, stop_t=  5.00E-09 #sweeps= 101 cpu clock= 1.27E+00
 sweep: tran tran64   end, cpu clock= 1.28E+00 peak memory=     397 mb
 dcop: begin dcop, cpu clock= 1.28E+00
 dcop: end dcop, cpu clock= 1.29E+00 peak memory=     397 mb tot_iter=     661
 output: ex3_3.mt0
 sweep: tran tran65   begin, stop_t=  5.00E-09 #sweeps= 101 cpu clock= 1.29E+00
 sweep: tran tran65   end, cpu clock= 1.30E+00 peak memory=     397 mb
 dcop: begin dcop, cpu clock= 1.30E+00
 dcop: end dcop, cpu clock= 1.30E+00 peak memory=     397 mb tot_iter=     671
 output: ex3_3.mt0
 sweep: tran tran66   begin, stop_t=  5.00E-09 #sweeps= 101 cpu clock= 1.30E+00
 sweep: tran tran66   end, cpu clock= 1.31E+00 peak memory=     397 mb
 dcop: begin dcop, cpu clock= 1.31E+00
 dcop: end dcop, cpu clock= 1.31E+00 peak memory=     397 mb tot_iter=     681
 output: ex3_3.mt0
 sweep: tran tran67   begin, stop_t=  5.00E-09 #sweeps= 101 cpu clock= 1.32E+00
 sweep: tran tran67   end, cpu clock= 1.33E+00 peak memory=     397 mb
 dcop: begin dcop, cpu clock= 1.33E+00
 dcop: end dcop, cpu clock= 1.33E+00 peak memory=     397 mb tot_iter=     691
 output: ex3_3.mt0
 sweep: tran tran68   begin, stop_t=  5.00E-09 #sweeps= 101 cpu clock= 1.34E+00
 sweep: tran tran68   end, cpu clock= 1.35E+00 peak memory=     397 mb
 dcop: begin dcop, cpu clock= 1.35E+00
 dcop: end dcop, cpu clock= 1.35E+00 peak memory=     397 mb tot_iter=     701
 output: ex3_3.mt0
 sweep: tran tran69   begin, stop_t=  5.00E-09 #sweeps= 101 cpu clock= 1.35E+00
 sweep: tran tran69   end, cpu clock= 1.36E+00 peak memory=     397 mb
 dcop: begin dcop, cpu clock= 1.37E+00
 dcop: end dcop, cpu clock= 1.37E+00 peak memory=     397 mb tot_iter=     711
 output: ex3_3.mt0
 sweep: tran tran70   begin, stop_t=  5.00E-09 #sweeps= 101 cpu clock= 1.37E+00
 sweep: tran tran70   end, cpu clock= 1.38E+00 peak memory=     397 mb
 dcop: begin dcop, cpu clock= 1.38E+00
 dcop: end dcop, cpu clock= 1.39E+00 peak memory=     397 mb tot_iter=     721
 output: ex3_3.mt0
 sweep: tran tran71   begin, stop_t=  5.00E-09 #sweeps= 101 cpu clock= 1.39E+00
 sweep: tran tran71   end, cpu clock= 1.40E+00 peak memory=     397 mb
 dcop: begin dcop, cpu clock= 1.40E+00
 dcop: end dcop, cpu clock= 1.41E+00 peak memory=     397 mb tot_iter=     731
 output: ex3_3.mt0
 sweep: tran tran72   begin, stop_t=  5.00E-09 #sweeps= 101 cpu clock= 1.41E+00
 sweep: tran tran72   end, cpu clock= 1.41E+00 peak memory=     397 mb
 dcop: begin dcop, cpu clock= 1.42E+00
 dcop: end dcop, cpu clock= 1.42E+00 peak memory=     397 mb tot_iter=     741
 output: ex3_3.mt0
 sweep: tran tran73   begin, stop_t=  5.00E-09 #sweeps= 101 cpu clock= 1.42E+00
 sweep: tran tran73   end, cpu clock= 1.43E+00 peak memory=     397 mb
 dcop: begin dcop, cpu clock= 1.43E+00
 dcop: end dcop, cpu clock= 1.44E+00 peak memory=     397 mb tot_iter=     751
 output: ex3_3.mt0
 sweep: tran tran74   begin, stop_t=  5.00E-09 #sweeps= 101 cpu clock= 1.44E+00
 sweep: tran tran74   end, cpu clock= 1.45E+00 peak memory=     397 mb
 dcop: begin dcop, cpu clock= 1.45E+00
 dcop: end dcop, cpu clock= 1.45E+00 peak memory=     397 mb tot_iter=     761
 output: ex3_3.mt0
 sweep: tran tran75   begin, stop_t=  5.00E-09 #sweeps= 101 cpu clock= 1.45E+00
 sweep: tran tran75   end, cpu clock= 1.46E+00 peak memory=     397 mb
 dcop: begin dcop, cpu clock= 1.46E+00
 dcop: end dcop, cpu clock= 1.47E+00 peak memory=     397 mb tot_iter=     770
 output: ex3_3.mt0
 sweep: tran tran76   begin, stop_t=  5.00E-09 #sweeps= 101 cpu clock= 1.47E+00
 sweep: tran tran76   end, cpu clock= 1.48E+00 peak memory=     397 mb
 dcop: begin dcop, cpu clock= 1.48E+00
 dcop: end dcop, cpu clock= 1.48E+00 peak memory=     397 mb tot_iter=     780
 output: ex3_3.mt0
 sweep: tran tran77   begin, stop_t=  5.00E-09 #sweeps= 101 cpu clock= 1.48E+00
 sweep: tran tran77   end, cpu clock= 1.49E+00 peak memory=     397 mb
 dcop: begin dcop, cpu clock= 1.50E+00
 dcop: end dcop, cpu clock= 1.50E+00 peak memory=     397 mb tot_iter=     790
 output: ex3_3.mt0
 sweep: tran tran78   begin, stop_t=  5.00E-09 #sweeps= 101 cpu clock= 1.50E+00
 sweep: tran tran78   end, cpu clock= 1.51E+00 peak memory=     397 mb
 dcop: begin dcop, cpu clock= 1.51E+00
 dcop: end dcop, cpu clock= 1.51E+00 peak memory=     397 mb tot_iter=     800
 output: ex3_3.mt0
 sweep: tran tran79   begin, stop_t=  5.00E-09 #sweeps= 101 cpu clock= 1.51E+00
 sweep: tran tran79   end, cpu clock= 1.52E+00 peak memory=     397 mb
 dcop: begin dcop, cpu clock= 1.53E+00
 dcop: end dcop, cpu clock= 1.53E+00 peak memory=     397 mb tot_iter=     810
 output: ex3_3.mt0
 sweep: tran tran80   begin, stop_t=  5.00E-09 #sweeps= 101 cpu clock= 1.53E+00
 sweep: tran tran80   end, cpu clock= 1.54E+00 peak memory=     397 mb
 dcop: begin dcop, cpu clock= 1.54E+00
 dcop: end dcop, cpu clock= 1.55E+00 peak memory=     397 mb tot_iter=     820
 output: ex3_3.mt0
 sweep: tran tran81   begin, stop_t=  5.00E-09 #sweeps= 101 cpu clock= 1.55E+00
 sweep: tran tran81   end, cpu clock= 1.56E+00 peak memory=     397 mb
 dcop: begin dcop, cpu clock= 1.56E+00
 dcop: end dcop, cpu clock= 1.56E+00 peak memory=     397 mb tot_iter=     830
 output: ex3_3.mt0
 sweep: tran tran82   begin, stop_t=  5.00E-09 #sweeps= 101 cpu clock= 1.56E+00
 sweep: tran tran82   end, cpu clock= 1.57E+00 peak memory=     397 mb
 dcop: begin dcop, cpu clock= 1.57E+00
 dcop: end dcop, cpu clock= 1.57E+00 peak memory=     397 mb tot_iter=     840
 output: ex3_3.mt0
 sweep: tran tran83   begin, stop_t=  5.00E-09 #sweeps= 101 cpu clock= 1.58E+00
 sweep: tran tran83   end, cpu clock= 1.59E+00 peak memory=     397 mb
 dcop: begin dcop, cpu clock= 1.59E+00
 dcop: end dcop, cpu clock= 1.59E+00 peak memory=     397 mb tot_iter=     850
 output: ex3_3.mt0
 sweep: tran tran84   begin, stop_t=  5.00E-09 #sweeps= 101 cpu clock= 1.59E+00
 sweep: tran tran84   end, cpu clock= 1.61E+00 peak memory=     397 mb
 dcop: begin dcop, cpu clock= 1.61E+00
 dcop: end dcop, cpu clock= 1.61E+00 peak memory=     397 mb tot_iter=     860
 output: ex3_3.mt0
 sweep: tran tran85   begin, stop_t=  5.00E-09 #sweeps= 101 cpu clock= 1.61E+00
 sweep: tran tran85   end, cpu clock= 1.62E+00 peak memory=     397 mb
 dcop: begin dcop, cpu clock= 1.62E+00
 dcop: end dcop, cpu clock= 1.63E+00 peak memory=     397 mb tot_iter=     870
 output: ex3_3.mt0
 sweep: tran tran86   begin, stop_t=  5.00E-09 #sweeps= 101 cpu clock= 1.63E+00
 sweep: tran tran86   end, cpu clock= 1.65E+00 peak memory=     397 mb
 dcop: begin dcop, cpu clock= 1.65E+00
 dcop: end dcop, cpu clock= 1.65E+00 peak memory=     397 mb tot_iter=     880
 output: ex3_3.mt0
 sweep: tran tran87   begin, stop_t=  5.00E-09 #sweeps= 101 cpu clock= 1.65E+00
 sweep: tran tran87   end, cpu clock= 1.66E+00 peak memory=     397 mb
 dcop: begin dcop, cpu clock= 1.66E+00
 dcop: end dcop, cpu clock= 1.66E+00 peak memory=     397 mb tot_iter=     890
 output: ex3_3.mt0
 sweep: tran tran88   begin, stop_t=  5.00E-09 #sweeps= 101 cpu clock= 1.67E+00
 sweep: tran tran88   end, cpu clock= 1.68E+00 peak memory=     397 mb
 dcop: begin dcop, cpu clock= 1.68E+00
 dcop: end dcop, cpu clock= 1.68E+00 peak memory=     397 mb tot_iter=     900
 output: ex3_3.mt0
 sweep: tran tran89   begin, stop_t=  5.00E-09 #sweeps= 101 cpu clock= 1.68E+00
 sweep: tran tran89   end, cpu clock= 1.69E+00 peak memory=     397 mb
 dcop: begin dcop, cpu clock= 1.69E+00
 dcop: end dcop, cpu clock= 1.69E+00 peak memory=     397 mb tot_iter=     910
 output: ex3_3.mt0
 sweep: tran tran90   begin, stop_t=  5.00E-09 #sweeps= 101 cpu clock= 1.69E+00
 sweep: tran tran90   end, cpu clock= 1.71E+00 peak memory=     397 mb
 dcop: begin dcop, cpu clock= 1.71E+00
 dcop: end dcop, cpu clock= 1.71E+00 peak memory=     397 mb tot_iter=     920
 output: ex3_3.mt0
 sweep: tran tran91   begin, stop_t=  5.00E-09 #sweeps= 101 cpu clock= 1.71E+00
 sweep: tran tran91   end, cpu clock= 1.72E+00 peak memory=     397 mb
 dcop: begin dcop, cpu clock= 1.72E+00
 dcop: end dcop, cpu clock= 1.73E+00 peak memory=     397 mb tot_iter=     930
 output: ex3_3.mt0
 sweep: tran tran92   begin, stop_t=  5.00E-09 #sweeps= 101 cpu clock= 1.73E+00
 sweep: tran tran92   end, cpu clock= 1.74E+00 peak memory=     397 mb
 dcop: begin dcop, cpu clock= 1.74E+00
 dcop: end dcop, cpu clock= 1.74E+00 peak memory=     397 mb tot_iter=     940
 output: ex3_3.mt0
 sweep: tran tran93   begin, stop_t=  5.00E-09 #sweeps= 101 cpu clock= 1.75E+00
 sweep: tran tran93   end, cpu clock= 1.76E+00 peak memory=     397 mb
 dcop: begin dcop, cpu clock= 1.76E+00
 dcop: end dcop, cpu clock= 1.76E+00 peak memory=     397 mb tot_iter=     950
 output: ex3_3.mt0
 sweep: tran tran94   begin, stop_t=  5.00E-09 #sweeps= 101 cpu clock= 1.77E+00
 sweep: tran tran94   end, cpu clock= 1.78E+00 peak memory=     397 mb
 dcop: begin dcop, cpu clock= 1.78E+00
 dcop: end dcop, cpu clock= 1.78E+00 peak memory=     397 mb tot_iter=     960
 output: ex3_3.mt0
 sweep: tran tran95   begin, stop_t=  5.00E-09 #sweeps= 101 cpu clock= 1.78E+00
 sweep: tran tran95   end, cpu clock= 1.79E+00 peak memory=     397 mb
 dcop: begin dcop, cpu clock= 1.79E+00
 dcop: end dcop, cpu clock= 1.80E+00 peak memory=     397 mb tot_iter=     970
 output: ex3_3.mt0
 sweep: tran tran96   begin, stop_t=  5.00E-09 #sweeps= 101 cpu clock= 1.80E+00
 sweep: tran tran96   end, cpu clock= 1.81E+00 peak memory=     397 mb
 dcop: begin dcop, cpu clock= 1.81E+00
 dcop: end dcop, cpu clock= 1.81E+00 peak memory=     397 mb tot_iter=     980
 output: ex3_3.mt0
 sweep: tran tran97   begin, stop_t=  5.00E-09 #sweeps= 101 cpu clock= 1.81E+00
 sweep: tran tran97   end, cpu clock= 1.83E+00 peak memory=     397 mb
 dcop: begin dcop, cpu clock= 1.83E+00
 dcop: end dcop, cpu clock= 1.83E+00 peak memory=     397 mb tot_iter=     989
 output: ex3_3.mt0
 sweep: tran tran98   begin, stop_t=  5.00E-09 #sweeps= 101 cpu clock= 1.83E+00
 sweep: tran tran98   end, cpu clock= 1.84E+00 peak memory=     397 mb
 dcop: begin dcop, cpu clock= 1.84E+00
 dcop: end dcop, cpu clock= 1.84E+00 peak memory=     397 mb tot_iter=     999
 output: ex3_3.mt0
 sweep: tran tran99   begin, stop_t=  5.00E-09 #sweeps= 101 cpu clock= 1.84E+00
 sweep: tran tran99   end, cpu clock= 1.85E+00 peak memory=     397 mb
 dcop: begin dcop, cpu clock= 1.86E+00
 dcop: end dcop, cpu clock= 1.86E+00 peak memory=     397 mb tot_iter=    1009
 output: ex3_3.mt0
 sweep: tran tran100  begin, stop_t=  5.00E-09 #sweeps= 101 cpu clock= 1.86E+00
 sweep: tran tran100  end, cpu clock= 1.87E+00 peak memory=     397 mb
 dcop: begin dcop, cpu clock= 1.87E+00
 dcop: end dcop, cpu clock= 1.87E+00 peak memory=     397 mb tot_iter=    1019
 output: ex3_3.mt0
 sweep: tran tran101  begin, stop_t=  5.00E-09 #sweeps= 101 cpu clock= 1.87E+00
 sweep: tran tran101  end, cpu clock= 1.88E+00 peak memory=     397 mb
 dcop: begin dcop, cpu clock= 1.88E+00
 dcop: end dcop, cpu clock= 1.88E+00 peak memory=     397 mb tot_iter=    1029
 output: ex3_3.mt0
 sweep: tran tran102  begin, stop_t=  5.00E-09 #sweeps= 101 cpu clock= 1.88E+00
 sweep: tran tran102  end, cpu clock= 1.89E+00 peak memory=     397 mb
 dcop: begin dcop, cpu clock= 1.89E+00
 dcop: end dcop, cpu clock= 1.90E+00 peak memory=     397 mb tot_iter=    1039
 output: ex3_3.mt0
 sweep: tran tran103  begin, stop_t=  5.00E-09 #sweeps= 101 cpu clock= 1.90E+00
 sweep: tran tran103  end, cpu clock= 1.91E+00 peak memory=     397 mb
 dcop: begin dcop, cpu clock= 1.91E+00
 dcop: end dcop, cpu clock= 1.91E+00 peak memory=     397 mb tot_iter=    1049
 output: ex3_3.mt0
 sweep: tran tran104  begin, stop_t=  5.00E-09 #sweeps= 101 cpu clock= 1.91E+00
 sweep: tran tran104  end, cpu clock= 1.92E+00 peak memory=     397 mb
 dcop: begin dcop, cpu clock= 1.92E+00
 dcop: end dcop, cpu clock= 1.93E+00 peak memory=     397 mb tot_iter=    1059
 output: ex3_3.mt0
 sweep: tran tran105  begin, stop_t=  5.00E-09 #sweeps= 101 cpu clock= 1.93E+00
 sweep: tran tran105  end, cpu clock= 1.94E+00 peak memory=     397 mb
 dcop: begin dcop, cpu clock= 1.94E+00
 dcop: end dcop, cpu clock= 1.95E+00 peak memory=     397 mb tot_iter=    1069
 output: ex3_3.mt0
 sweep: tran tran106  begin, stop_t=  5.00E-09 #sweeps= 101 cpu clock= 1.95E+00
 sweep: tran tran106  end, cpu clock= 1.96E+00 peak memory=     397 mb
 dcop: begin dcop, cpu clock= 1.96E+00
 dcop: end dcop, cpu clock= 1.96E+00 peak memory=     397 mb tot_iter=    1079
 output: ex3_3.mt0
 sweep: tran tran107  begin, stop_t=  5.00E-09 #sweeps= 101 cpu clock= 1.96E+00
 sweep: tran tran107  end, cpu clock= 1.97E+00 peak memory=     397 mb
 dcop: begin dcop, cpu clock= 1.97E+00
 dcop: end dcop, cpu clock= 1.97E+00 peak memory=     397 mb tot_iter=    1089
 output: ex3_3.mt0
 sweep: tran tran108  begin, stop_t=  5.00E-09 #sweeps= 101 cpu clock= 1.97E+00
 sweep: tran tran108  end, cpu clock= 1.98E+00 peak memory=     397 mb
 dcop: begin dcop, cpu clock= 1.98E+00
 dcop: end dcop, cpu clock= 1.99E+00 peak memory=     397 mb tot_iter=    1099
 output: ex3_3.mt0
 sweep: tran tran109  begin, stop_t=  5.00E-09 #sweeps= 101 cpu clock= 1.99E+00
 sweep: tran tran109  end, cpu clock= 2.00E+00 peak memory=     397 mb
 dcop: begin dcop, cpu clock= 2.00E+00
 dcop: end dcop, cpu clock= 2.00E+00 peak memory=     397 mb tot_iter=    1109
 output: ex3_3.mt0
 sweep: tran tran110  begin, stop_t=  5.00E-09 #sweeps= 101 cpu clock= 2.00E+00
 sweep: tran tran110  end, cpu clock= 2.01E+00 peak memory=     397 mb
 dcop: begin dcop, cpu clock= 2.01E+00
 dcop: end dcop, cpu clock= 2.02E+00 peak memory=     397 mb tot_iter=    1119
 output: ex3_3.mt0
 sweep: tran tran111  begin, stop_t=  5.00E-09 #sweeps= 101 cpu clock= 2.02E+00
 sweep: tran tran111  end, cpu clock= 2.03E+00 peak memory=     397 mb
 dcop: begin dcop, cpu clock= 2.03E+00
 dcop: end dcop, cpu clock= 2.03E+00 peak memory=     397 mb tot_iter=    1129
 output: ex3_3.mt0
 sweep: tran tran112  begin, stop_t=  5.00E-09 #sweeps= 101 cpu clock= 2.03E+00
 sweep: tran tran112  end, cpu clock= 2.04E+00 peak memory=     397 mb
 dcop: begin dcop, cpu clock= 2.04E+00
 dcop: end dcop, cpu clock= 2.04E+00 peak memory=     397 mb tot_iter=    1139
 output: ex3_3.mt0
 sweep: tran tran113  begin, stop_t=  5.00E-09 #sweeps= 101 cpu clock= 2.05E+00
 sweep: tran tran113  end, cpu clock= 2.06E+00 peak memory=     397 mb
 dcop: begin dcop, cpu clock= 2.06E+00
 dcop: end dcop, cpu clock= 2.06E+00 peak memory=     397 mb tot_iter=    1149
 output: ex3_3.mt0
 sweep: tran tran114  begin, stop_t=  5.00E-09 #sweeps= 101 cpu clock= 2.06E+00
 sweep: tran tran114  end, cpu clock= 2.07E+00 peak memory=     397 mb
 dcop: begin dcop, cpu clock= 2.07E+00
 dcop: end dcop, cpu clock= 2.07E+00 peak memory=     397 mb tot_iter=    1159
 output: ex3_3.mt0
 sweep: tran tran115  begin, stop_t=  5.00E-09 #sweeps= 101 cpu clock= 2.08E+00
 sweep: tran tran115  end, cpu clock= 2.08E+00 peak memory=     397 mb
 dcop: begin dcop, cpu clock= 2.09E+00
 dcop: end dcop, cpu clock= 2.09E+00 peak memory=     397 mb tot_iter=    1169
 output: ex3_3.mt0
 sweep: tran tran116  begin, stop_t=  5.00E-09 #sweeps= 101 cpu clock= 2.09E+00
 sweep: tran tran116  end, cpu clock= 2.10E+00 peak memory=     397 mb
 dcop: begin dcop, cpu clock= 2.10E+00
 dcop: end dcop, cpu clock= 2.10E+00 peak memory=     397 mb tot_iter=    1179
 output: ex3_3.mt0
 sweep: tran tran117  begin, stop_t=  5.00E-09 #sweeps= 101 cpu clock= 2.10E+00
 sweep: tran tran117  end, cpu clock= 2.11E+00 peak memory=     397 mb
 dcop: begin dcop, cpu clock= 2.11E+00
 dcop: end dcop, cpu clock= 2.11E+00 peak memory=     397 mb tot_iter=    1189
 output: ex3_3.mt0
 sweep: tran tran118  begin, stop_t=  5.00E-09 #sweeps= 101 cpu clock= 2.12E+00
 sweep: tran tran118  end, cpu clock= 2.12E+00 peak memory=     397 mb
 dcop: begin dcop, cpu clock= 2.13E+00
 dcop: end dcop, cpu clock= 2.13E+00 peak memory=     397 mb tot_iter=    1198
 output: ex3_3.mt0
 sweep: tran tran119  begin, stop_t=  5.00E-09 #sweeps= 101 cpu clock= 2.13E+00
 sweep: tran tran119  end, cpu clock= 2.14E+00 peak memory=     397 mb
 dcop: begin dcop, cpu clock= 2.14E+00
 dcop: end dcop, cpu clock= 2.14E+00 peak memory=     397 mb tot_iter=    1208
 output: ex3_3.mt0
 sweep: tran tran120  begin, stop_t=  5.00E-09 #sweeps= 101 cpu clock= 2.14E+00
 sweep: tran tran120  end, cpu clock= 2.15E+00 peak memory=     397 mb
 dcop: begin dcop, cpu clock= 2.15E+00
 dcop: end dcop, cpu clock= 2.16E+00 peak memory=     397 mb tot_iter=    1218
 output: ex3_3.mt0
 sweep: tran tran121  begin, stop_t=  5.00E-09 #sweeps= 101 cpu clock= 2.16E+00
 sweep: tran tran121  end, cpu clock= 2.17E+00 peak memory=     397 mb
 dcop: begin dcop, cpu clock= 2.17E+00
 dcop: end dcop, cpu clock= 2.17E+00 peak memory=     397 mb tot_iter=    1228
 output: ex3_3.mt0
 sweep: tran tran122  begin, stop_t=  5.00E-09 #sweeps= 101 cpu clock= 2.17E+00
 sweep: tran tran122  end, cpu clock= 2.18E+00 peak memory=     397 mb
 dcop: begin dcop, cpu clock= 2.18E+00
 dcop: end dcop, cpu clock= 2.18E+00 peak memory=     397 mb tot_iter=    1238
 output: ex3_3.mt0
 sweep: tran tran123  begin, stop_t=  5.00E-09 #sweeps= 101 cpu clock= 2.18E+00
 sweep: tran tran123  end, cpu clock= 2.19E+00 peak memory=     397 mb
 dcop: begin dcop, cpu clock= 2.19E+00
 dcop: end dcop, cpu clock= 2.20E+00 peak memory=     397 mb tot_iter=    1248
 output: ex3_3.mt0
 sweep: tran tran124  begin, stop_t=  5.00E-09 #sweeps= 101 cpu clock= 2.20E+00
 sweep: tran tran124  end, cpu clock= 2.21E+00 peak memory=     397 mb
 dcop: begin dcop, cpu clock= 2.21E+00
 dcop: end dcop, cpu clock= 2.21E+00 peak memory=     397 mb tot_iter=    1258
 output: ex3_3.mt0
 sweep: tran tran125  begin, stop_t=  5.00E-09 #sweeps= 101 cpu clock= 2.21E+00
 sweep: tran tran125  end, cpu clock= 2.22E+00 peak memory=     397 mb
 dcop: begin dcop, cpu clock= 2.22E+00
 dcop: end dcop, cpu clock= 2.22E+00 peak memory=     397 mb tot_iter=    1268
 output: ex3_3.mt0
 sweep: tran tran126  begin, stop_t=  5.00E-09 #sweeps= 101 cpu clock= 2.22E+00
 sweep: tran tran126  end, cpu clock= 2.23E+00 peak memory=     397 mb
 dcop: begin dcop, cpu clock= 2.23E+00
 dcop: end dcop, cpu clock= 2.24E+00 peak memory=     397 mb tot_iter=    1278
 output: ex3_3.mt0
 sweep: tran tran127  begin, stop_t=  5.00E-09 #sweeps= 101 cpu clock= 2.24E+00
 sweep: tran tran127  end, cpu clock= 2.25E+00 peak memory=     397 mb
 dcop: begin dcop, cpu clock= 2.25E+00
 dcop: end dcop, cpu clock= 2.25E+00 peak memory=     397 mb tot_iter=    1288
 output: ex3_3.mt0
 sweep: tran tran128  begin, stop_t=  5.00E-09 #sweeps= 101 cpu clock= 2.25E+00
 sweep: tran tran128  end, cpu clock= 2.26E+00 peak memory=     397 mb
 dcop: begin dcop, cpu clock= 2.26E+00
 dcop: end dcop, cpu clock= 2.26E+00 peak memory=     397 mb tot_iter=    1298
 output: ex3_3.mt0
 sweep: tran tran129  begin, stop_t=  5.00E-09 #sweeps= 101 cpu clock= 2.27E+00
 sweep: tran tran129  end, cpu clock= 2.28E+00 peak memory=     397 mb
 dcop: begin dcop, cpu clock= 2.28E+00
 dcop: end dcop, cpu clock= 2.28E+00 peak memory=     397 mb tot_iter=    1308
 output: ex3_3.mt0
 sweep: tran tran130  begin, stop_t=  5.00E-09 #sweeps= 101 cpu clock= 2.28E+00
 sweep: tran tran130  end, cpu clock= 2.29E+00 peak memory=     397 mb
 dcop: begin dcop, cpu clock= 2.29E+00
 dcop: end dcop, cpu clock= 2.29E+00 peak memory=     397 mb tot_iter=    1318
 output: ex3_3.mt0
 sweep: tran tran131  begin, stop_t=  5.00E-09 #sweeps= 101 cpu clock= 2.29E+00
 sweep: tran tran131  end, cpu clock= 2.31E+00 peak memory=     397 mb
 dcop: begin dcop, cpu clock= 2.31E+00
 dcop: end dcop, cpu clock= 2.31E+00 peak memory=     397 mb tot_iter=    1328
 output: ex3_3.mt0
 sweep: tran tran132  begin, stop_t=  5.00E-09 #sweeps= 101 cpu clock= 2.32E+00
 sweep: tran tran132  end, cpu clock= 2.33E+00 peak memory=     397 mb
 dcop: begin dcop, cpu clock= 2.33E+00
 dcop: end dcop, cpu clock= 2.34E+00 peak memory=     397 mb tot_iter=    1338
 output: ex3_3.mt0
 sweep: tran tran133  begin, stop_t=  5.00E-09 #sweeps= 101 cpu clock= 2.34E+00
 sweep: tran tran133  end, cpu clock= 2.35E+00 peak memory=     397 mb
 dcop: begin dcop, cpu clock= 2.35E+00
 dcop: end dcop, cpu clock= 2.36E+00 peak memory=     397 mb tot_iter=    1348
 output: ex3_3.mt0
 sweep: tran tran134  begin, stop_t=  5.00E-09 #sweeps= 101 cpu clock= 2.36E+00
 sweep: tran tran134  end, cpu clock= 2.37E+00 peak memory=     397 mb
 dcop: begin dcop, cpu clock= 2.37E+00
 dcop: end dcop, cpu clock= 2.38E+00 peak memory=     397 mb tot_iter=    1358
 output: ex3_3.mt0
 sweep: tran tran135  begin, stop_t=  5.00E-09 #sweeps= 101 cpu clock= 2.38E+00
 sweep: tran tran135  end, cpu clock= 2.39E+00 peak memory=     397 mb
 dcop: begin dcop, cpu clock= 2.39E+00
 dcop: end dcop, cpu clock= 2.40E+00 peak memory=     397 mb tot_iter=    1367
 output: ex3_3.mt0
 sweep: tran tran136  begin, stop_t=  5.00E-09 #sweeps= 101 cpu clock= 2.40E+00
 sweep: tran tran136  end, cpu clock= 2.41E+00 peak memory=     397 mb
 dcop: begin dcop, cpu clock= 2.41E+00
 dcop: end dcop, cpu clock= 2.42E+00 peak memory=     397 mb tot_iter=    1377
 output: ex3_3.mt0
 sweep: tran tran137  begin, stop_t=  5.00E-09 #sweeps= 101 cpu clock= 2.42E+00
 sweep: tran tran137  end, cpu clock= 2.43E+00 peak memory=     397 mb
 dcop: begin dcop, cpu clock= 2.43E+00
 dcop: end dcop, cpu clock= 2.44E+00 peak memory=     397 mb tot_iter=    1387
 output: ex3_3.mt0
 sweep: tran tran138  begin, stop_t=  5.00E-09 #sweeps= 101 cpu clock= 2.44E+00
 sweep: tran tran138  end, cpu clock= 2.45E+00 peak memory=     397 mb
 dcop: begin dcop, cpu clock= 2.45E+00
 dcop: end dcop, cpu clock= 2.45E+00 peak memory=     397 mb tot_iter=    1397
 output: ex3_3.mt0
 sweep: tran tran139  begin, stop_t=  5.00E-09 #sweeps= 101 cpu clock= 2.45E+00
 sweep: tran tran139  end, cpu clock= 2.46E+00 peak memory=     397 mb
 dcop: begin dcop, cpu clock= 2.46E+00
 dcop: end dcop, cpu clock= 2.46E+00 peak memory=     397 mb tot_iter=    1407
 output: ex3_3.mt0
 sweep: tran tran140  begin, stop_t=  5.00E-09 #sweeps= 101 cpu clock= 2.46E+00
 sweep: tran tran140  end, cpu clock= 2.47E+00 peak memory=     397 mb
 dcop: begin dcop, cpu clock= 2.47E+00
 dcop: end dcop, cpu clock= 2.48E+00 peak memory=     397 mb tot_iter=    1417
 output: ex3_3.mt0
 sweep: tran tran141  begin, stop_t=  5.00E-09 #sweeps= 101 cpu clock= 2.48E+00
 sweep: tran tran141  end, cpu clock= 2.49E+00 peak memory=     397 mb
 dcop: begin dcop, cpu clock= 2.49E+00
 dcop: end dcop, cpu clock= 2.50E+00 peak memory=     397 mb tot_iter=    1426
 output: ex3_3.mt0
 sweep: tran tran142  begin, stop_t=  5.00E-09 #sweeps= 101 cpu clock= 2.50E+00
 sweep: tran tran142  end, cpu clock= 2.51E+00 peak memory=     397 mb
 dcop: begin dcop, cpu clock= 2.51E+00
 dcop: end dcop, cpu clock= 2.51E+00 peak memory=     397 mb tot_iter=    1436
 output: ex3_3.mt0
 sweep: tran tran143  begin, stop_t=  5.00E-09 #sweeps= 101 cpu clock= 2.51E+00
 sweep: tran tran143  end, cpu clock= 2.52E+00 peak memory=     397 mb
 dcop: begin dcop, cpu clock= 2.52E+00
 dcop: end dcop, cpu clock= 2.53E+00 peak memory=     397 mb tot_iter=    1446
 output: ex3_3.mt0
 sweep: tran tran144  begin, stop_t=  5.00E-09 #sweeps= 101 cpu clock= 2.53E+00
 sweep: tran tran144  end, cpu clock= 2.54E+00 peak memory=     397 mb
 dcop: begin dcop, cpu clock= 2.54E+00
 dcop: end dcop, cpu clock= 2.54E+00 peak memory=     397 mb tot_iter=    1456
 output: ex3_3.mt0
 sweep: tran tran145  begin, stop_t=  5.00E-09 #sweeps= 101 cpu clock= 2.54E+00
 sweep: tran tran145  end, cpu clock= 2.55E+00 peak memory=     397 mb
 dcop: begin dcop, cpu clock= 2.56E+00
 dcop: end dcop, cpu clock= 2.56E+00 peak memory=     397 mb tot_iter=    1466
 output: ex3_3.mt0
 sweep: tran tran146  begin, stop_t=  5.00E-09 #sweeps= 101 cpu clock= 2.56E+00
 sweep: tran tran146  end, cpu clock= 2.57E+00 peak memory=     397 mb
 dcop: begin dcop, cpu clock= 2.57E+00
 dcop: end dcop, cpu clock= 2.57E+00 peak memory=     397 mb tot_iter=    1476
 output: ex3_3.mt0
 sweep: tran tran147  begin, stop_t=  5.00E-09 #sweeps= 101 cpu clock= 2.58E+00
 sweep: tran tran147  end, cpu clock= 2.59E+00 peak memory=     397 mb
 dcop: begin dcop, cpu clock= 2.59E+00
 dcop: end dcop, cpu clock= 2.60E+00 peak memory=     397 mb tot_iter=    1486
 output: ex3_3.mt0
 sweep: tran tran148  begin, stop_t=  5.00E-09 #sweeps= 101 cpu clock= 2.60E+00
 sweep: tran tran148  end, cpu clock= 2.61E+00 peak memory=     397 mb
 dcop: begin dcop, cpu clock= 2.61E+00
 dcop: end dcop, cpu clock= 2.61E+00 peak memory=     397 mb tot_iter=    1496
 output: ex3_3.mt0
 sweep: tran tran149  begin, stop_t=  5.00E-09 #sweeps= 101 cpu clock= 2.61E+00
 sweep: tran tran149  end, cpu clock= 2.62E+00 peak memory=     397 mb
 dcop: begin dcop, cpu clock= 2.63E+00
 dcop: end dcop, cpu clock= 2.63E+00 peak memory=     397 mb tot_iter=    1506
 output: ex3_3.mt0
 sweep: tran tran150  begin, stop_t=  5.00E-09 #sweeps= 101 cpu clock= 2.63E+00
 sweep: tran tran150  end, cpu clock= 2.64E+00 peak memory=     397 mb
 dcop: begin dcop, cpu clock= 2.64E+00
 dcop: end dcop, cpu clock= 2.64E+00 peak memory=     397 mb tot_iter=    1516
 output: ex3_3.mt0
 sweep: tran tran151  begin, stop_t=  5.00E-09 #sweeps= 101 cpu clock= 2.64E+00
 sweep: tran tran151  end, cpu clock= 2.65E+00 peak memory=     397 mb
 dcop: begin dcop, cpu clock= 2.65E+00
 dcop: end dcop, cpu clock= 2.66E+00 peak memory=     397 mb tot_iter=    1526
 output: ex3_3.mt0
 sweep: tran tran152  begin, stop_t=  5.00E-09 #sweeps= 101 cpu clock= 2.66E+00
 sweep: tran tran152  end, cpu clock= 2.66E+00 peak memory=     397 mb
 dcop: begin dcop, cpu clock= 2.67E+00
 dcop: end dcop, cpu clock= 2.67E+00 peak memory=     397 mb tot_iter=    1536
 output: ex3_3.mt0
 sweep: tran tran153  begin, stop_t=  5.00E-09 #sweeps= 101 cpu clock= 2.67E+00
 sweep: tran tran153  end, cpu clock= 2.68E+00 peak memory=     397 mb
 dcop: begin dcop, cpu clock= 2.68E+00
 dcop: end dcop, cpu clock= 2.68E+00 peak memory=     397 mb tot_iter=    1546
 output: ex3_3.mt0
 sweep: tran tran154  begin, stop_t=  5.00E-09 #sweeps= 101 cpu clock= 2.68E+00
 sweep: tran tran154  end, cpu clock= 2.69E+00 peak memory=     397 mb
 dcop: begin dcop, cpu clock= 2.69E+00
 dcop: end dcop, cpu clock= 2.69E+00 peak memory=     397 mb tot_iter=    1556
 output: ex3_3.mt0
 sweep: tran tran155  begin, stop_t=  5.00E-09 #sweeps= 101 cpu clock= 2.69E+00
 sweep: tran tran155  end, cpu clock= 2.70E+00 peak memory=     397 mb
 dcop: begin dcop, cpu clock= 2.71E+00
 dcop: end dcop, cpu clock= 2.71E+00 peak memory=     397 mb tot_iter=    1566
 output: ex3_3.mt0
 sweep: tran tran156  begin, stop_t=  5.00E-09 #sweeps= 101 cpu clock= 2.71E+00
 sweep: tran tran156  end, cpu clock= 2.72E+00 peak memory=     397 mb
 dcop: begin dcop, cpu clock= 2.72E+00
 dcop: end dcop, cpu clock= 2.73E+00 peak memory=     397 mb tot_iter=    1576
 output: ex3_3.mt0
 sweep: tran tran157  begin, stop_t=  5.00E-09 #sweeps= 101 cpu clock= 2.73E+00
 sweep: tran tran157  end, cpu clock= 2.73E+00 peak memory=     397 mb
 dcop: begin dcop, cpu clock= 2.74E+00
 dcop: end dcop, cpu clock= 2.74E+00 peak memory=     397 mb tot_iter=    1586
 output: ex3_3.mt0
 sweep: tran tran158  begin, stop_t=  5.00E-09 #sweeps= 101 cpu clock= 2.74E+00
 sweep: tran tran158  end, cpu clock= 2.75E+00 peak memory=     397 mb
 dcop: begin dcop, cpu clock= 2.76E+00
 dcop: end dcop, cpu clock= 2.76E+00 peak memory=     397 mb tot_iter=    1596
 output: ex3_3.mt0
 sweep: tran tran159  begin, stop_t=  5.00E-09 #sweeps= 101 cpu clock= 2.76E+00
 sweep: tran tran159  end, cpu clock= 2.77E+00 peak memory=     397 mb
 dcop: begin dcop, cpu clock= 2.77E+00
 dcop: end dcop, cpu clock= 2.77E+00 peak memory=     397 mb tot_iter=    1606
 output: ex3_3.mt0
 sweep: tran tran160  begin, stop_t=  5.00E-09 #sweeps= 101 cpu clock= 2.78E+00
 sweep: tran tran160  end, cpu clock= 2.79E+00 peak memory=     397 mb
 dcop: begin dcop, cpu clock= 2.79E+00
 dcop: end dcop, cpu clock= 2.79E+00 peak memory=     397 mb tot_iter=    1616
 output: ex3_3.mt0
 sweep: tran tran161  begin, stop_t=  5.00E-09 #sweeps= 101 cpu clock= 2.79E+00
 sweep: tran tran161  end, cpu clock= 2.80E+00 peak memory=     397 mb
 dcop: begin dcop, cpu clock= 2.80E+00
 dcop: end dcop, cpu clock= 2.81E+00 peak memory=     397 mb tot_iter=    1626
 output: ex3_3.mt0
 sweep: tran tran162  begin, stop_t=  5.00E-09 #sweeps= 101 cpu clock= 2.81E+00
 sweep: tran tran162  end, cpu clock= 2.82E+00 peak memory=     397 mb
 dcop: begin dcop, cpu clock= 2.82E+00
 dcop: end dcop, cpu clock= 2.82E+00 peak memory=     397 mb tot_iter=    1636
 output: ex3_3.mt0
 sweep: tran tran163  begin, stop_t=  5.00E-09 #sweeps= 101 cpu clock= 2.82E+00
 sweep: tran tran163  end, cpu clock= 2.83E+00 peak memory=     397 mb
 dcop: begin dcop, cpu clock= 2.83E+00
 dcop: end dcop, cpu clock= 2.84E+00 peak memory=     397 mb tot_iter=    1646
 output: ex3_3.mt0
 sweep: tran tran164  begin, stop_t=  5.00E-09 #sweeps= 101 cpu clock= 2.84E+00
 sweep: tran tran164  end, cpu clock= 2.85E+00 peak memory=     397 mb
 dcop: begin dcop, cpu clock= 2.85E+00
 dcop: end dcop, cpu clock= 2.85E+00 peak memory=     397 mb tot_iter=    1656
 output: ex3_3.mt0
 sweep: tran tran165  begin, stop_t=  5.00E-09 #sweeps= 101 cpu clock= 2.85E+00
 sweep: tran tran165  end, cpu clock= 2.86E+00 peak memory=     397 mb
 dcop: begin dcop, cpu clock= 2.86E+00
 dcop: end dcop, cpu clock= 2.87E+00 peak memory=     397 mb tot_iter=    1666
 output: ex3_3.mt0
 sweep: tran tran166  begin, stop_t=  5.00E-09 #sweeps= 101 cpu clock= 2.87E+00
 sweep: tran tran166  end, cpu clock= 2.88E+00 peak memory=     397 mb
 dcop: begin dcop, cpu clock= 2.88E+00
 dcop: end dcop, cpu clock= 2.88E+00 peak memory=     397 mb tot_iter=    1676
 output: ex3_3.mt0
 sweep: tran tran167  begin, stop_t=  5.00E-09 #sweeps= 101 cpu clock= 2.88E+00
 sweep: tran tran167  end, cpu clock= 2.89E+00 peak memory=     397 mb
 dcop: begin dcop, cpu clock= 2.89E+00
 dcop: end dcop, cpu clock= 2.90E+00 peak memory=     397 mb tot_iter=    1686
 output: ex3_3.mt0
 sweep: tran tran168  begin, stop_t=  5.00E-09 #sweeps= 101 cpu clock= 2.90E+00
 sweep: tran tran168  end, cpu clock= 2.91E+00 peak memory=     397 mb
 dcop: begin dcop, cpu clock= 2.91E+00
 dcop: end dcop, cpu clock= 2.91E+00 peak memory=     397 mb tot_iter=    1696
 output: ex3_3.mt0
 sweep: tran tran169  begin, stop_t=  5.00E-09 #sweeps= 101 cpu clock= 2.91E+00
 sweep: tran tran169  end, cpu clock= 2.92E+00 peak memory=     397 mb
 dcop: begin dcop, cpu clock= 2.93E+00
 dcop: end dcop, cpu clock= 2.93E+00 peak memory=     397 mb tot_iter=    1706
 output: ex3_3.mt0
 sweep: tran tran170  begin, stop_t=  5.00E-09 #sweeps= 101 cpu clock= 2.93E+00
 sweep: tran tran170  end, cpu clock= 2.94E+00 peak memory=     397 mb
 dcop: begin dcop, cpu clock= 2.94E+00
 dcop: end dcop, cpu clock= 2.94E+00 peak memory=     397 mb tot_iter=    1716
 output: ex3_3.mt0
 sweep: tran tran171  begin, stop_t=  5.00E-09 #sweeps= 101 cpu clock= 2.94E+00
 sweep: tran tran171  end, cpu clock= 2.95E+00 peak memory=     397 mb
 dcop: begin dcop, cpu clock= 2.95E+00
 dcop: end dcop, cpu clock= 2.96E+00 peak memory=     397 mb tot_iter=    1726
 output: ex3_3.mt0
 sweep: tran tran172  begin, stop_t=  5.00E-09 #sweeps= 101 cpu clock= 2.96E+00
 sweep: tran tran172  end, cpu clock= 2.97E+00 peak memory=     397 mb
 dcop: begin dcop, cpu clock= 2.97E+00
 dcop: end dcop, cpu clock= 2.97E+00 peak memory=     397 mb tot_iter=    1736
 output: ex3_3.mt0
 sweep: tran tran173  begin, stop_t=  5.00E-09 #sweeps= 101 cpu clock= 2.97E+00
 sweep: tran tran173  end, cpu clock= 2.98E+00 peak memory=     397 mb
 dcop: begin dcop, cpu clock= 2.98E+00
 dcop: end dcop, cpu clock= 2.98E+00 peak memory=     397 mb tot_iter=    1746
 output: ex3_3.mt0
 sweep: tran tran174  begin, stop_t=  5.00E-09 #sweeps= 101 cpu clock= 2.98E+00
 sweep: tran tran174  end, cpu clock= 2.99E+00 peak memory=     397 mb
 dcop: begin dcop, cpu clock= 2.99E+00
 dcop: end dcop, cpu clock= 3.00E+00 peak memory=     397 mb tot_iter=    1756
 output: ex3_3.mt0
 sweep: tran tran175  begin, stop_t=  5.00E-09 #sweeps= 101 cpu clock= 3.00E+00
 sweep: tran tran175  end, cpu clock= 3.01E+00 peak memory=     397 mb
 dcop: begin dcop, cpu clock= 3.02E+00
 dcop: end dcop, cpu clock= 3.02E+00 peak memory=     397 mb tot_iter=    1765
 output: ex3_3.mt0
 sweep: tran tran176  begin, stop_t=  5.00E-09 #sweeps= 101 cpu clock= 3.02E+00
 sweep: tran tran176  end, cpu clock= 3.03E+00 peak memory=     397 mb
 dcop: begin dcop, cpu clock= 3.03E+00
 dcop: end dcop, cpu clock= 3.03E+00 peak memory=     397 mb tot_iter=    1775
 output: ex3_3.mt0
 sweep: tran tran177  begin, stop_t=  5.00E-09 #sweeps= 101 cpu clock= 3.03E+00
 sweep: tran tran177  end, cpu clock= 3.04E+00 peak memory=     397 mb
 dcop: begin dcop, cpu clock= 3.05E+00
 dcop: end dcop, cpu clock= 3.05E+00 peak memory=     397 mb tot_iter=    1785
 output: ex3_3.mt0
 sweep: tran tran178  begin, stop_t=  5.00E-09 #sweeps= 101 cpu clock= 3.05E+00
 sweep: tran tran178  end, cpu clock= 3.06E+00 peak memory=     397 mb
 dcop: begin dcop, cpu clock= 3.06E+00
 dcop: end dcop, cpu clock= 3.06E+00 peak memory=     397 mb tot_iter=    1795
 output: ex3_3.mt0
 sweep: tran tran179  begin, stop_t=  5.00E-09 #sweeps= 101 cpu clock= 3.06E+00
 sweep: tran tran179  end, cpu clock= 3.07E+00 peak memory=     397 mb
 dcop: begin dcop, cpu clock= 3.08E+00
 dcop: end dcop, cpu clock= 3.08E+00 peak memory=     397 mb tot_iter=    1805
 output: ex3_3.mt0
 sweep: tran tran180  begin, stop_t=  5.00E-09 #sweeps= 101 cpu clock= 3.08E+00
 sweep: tran tran180  end, cpu clock= 3.09E+00 peak memory=     397 mb
 dcop: begin dcop, cpu clock= 3.09E+00
 dcop: end dcop, cpu clock= 3.09E+00 peak memory=     397 mb tot_iter=    1815
 output: ex3_3.mt0
 sweep: tran tran181  begin, stop_t=  5.00E-09 #sweeps= 101 cpu clock= 3.09E+00
 sweep: tran tran181  end, cpu clock= 3.11E+00 peak memory=     397 mb
 dcop: begin dcop, cpu clock= 3.11E+00
 dcop: end dcop, cpu clock= 3.11E+00 peak memory=     397 mb tot_iter=    1824
 output: ex3_3.mt0
 sweep: tran tran182  begin, stop_t=  5.00E-09 #sweeps= 101 cpu clock= 3.11E+00
 sweep: tran tran182  end, cpu clock= 3.12E+00 peak memory=     397 mb
 dcop: begin dcop, cpu clock= 3.12E+00
 dcop: end dcop, cpu clock= 3.13E+00 peak memory=     397 mb tot_iter=    1834
 output: ex3_3.mt0
 sweep: tran tran183  begin, stop_t=  5.00E-09 #sweeps= 101 cpu clock= 3.13E+00
 sweep: tran tran183  end, cpu clock= 3.14E+00 peak memory=     397 mb
 dcop: begin dcop, cpu clock= 3.14E+00
 dcop: end dcop, cpu clock= 3.14E+00 peak memory=     397 mb tot_iter=    1844
 output: ex3_3.mt0
 sweep: tran tran184  begin, stop_t=  5.00E-09 #sweeps= 101 cpu clock= 3.14E+00
 sweep: tran tran184  end, cpu clock= 3.15E+00 peak memory=     397 mb
 dcop: begin dcop, cpu clock= 3.15E+00
 dcop: end dcop, cpu clock= 3.16E+00 peak memory=     397 mb tot_iter=    1854
 output: ex3_3.mt0
 sweep: tran tran185  begin, stop_t=  5.00E-09 #sweeps= 101 cpu clock= 3.16E+00
 sweep: tran tran185  end, cpu clock= 3.16E+00 peak memory=     397 mb
 dcop: begin dcop, cpu clock= 3.17E+00
 dcop: end dcop, cpu clock= 3.17E+00 peak memory=     397 mb tot_iter=    1864
 output: ex3_3.mt0
 sweep: tran tran186  begin, stop_t=  5.00E-09 #sweeps= 101 cpu clock= 3.17E+00
 sweep: tran tran186  end, cpu clock= 3.18E+00 peak memory=     397 mb
 dcop: begin dcop, cpu clock= 3.18E+00
 dcop: end dcop, cpu clock= 3.18E+00 peak memory=     397 mb tot_iter=    1874
 output: ex3_3.mt0
 sweep: tran tran187  begin, stop_t=  5.00E-09 #sweeps= 101 cpu clock= 3.18E+00
 sweep: tran tran187  end, cpu clock= 3.20E+00 peak memory=     397 mb
 dcop: begin dcop, cpu clock= 3.20E+00
 dcop: end dcop, cpu clock= 3.20E+00 peak memory=     397 mb tot_iter=    1884
 output: ex3_3.mt0
 sweep: tran tran188  begin, stop_t=  5.00E-09 #sweeps= 101 cpu clock= 3.20E+00
 sweep: tran tran188  end, cpu clock= 3.21E+00 peak memory=     397 mb
 dcop: begin dcop, cpu clock= 3.21E+00
 dcop: end dcop, cpu clock= 3.22E+00 peak memory=     397 mb tot_iter=    1894
 output: ex3_3.mt0
 sweep: tran tran189  begin, stop_t=  5.00E-09 #sweeps= 101 cpu clock= 3.22E+00
 sweep: tran tran189  end, cpu clock= 3.23E+00 peak memory=     397 mb
 dcop: begin dcop, cpu clock= 3.24E+00
 dcop: end dcop, cpu clock= 3.24E+00 peak memory=     397 mb tot_iter=    1904
 output: ex3_3.mt0
 sweep: tran tran190  begin, stop_t=  5.00E-09 #sweeps= 101 cpu clock= 3.24E+00
 sweep: tran tran190  end, cpu clock= 3.25E+00 peak memory=     397 mb
 dcop: begin dcop, cpu clock= 3.25E+00
 dcop: end dcop, cpu clock= 3.25E+00 peak memory=     397 mb tot_iter=    1914
 output: ex3_3.mt0
 sweep: tran tran191  begin, stop_t=  5.00E-09 #sweeps= 101 cpu clock= 3.25E+00
 sweep: tran tran191  end, cpu clock= 3.27E+00 peak memory=     397 mb
 dcop: begin dcop, cpu clock= 3.27E+00
 dcop: end dcop, cpu clock= 3.27E+00 peak memory=     397 mb tot_iter=    1924
 output: ex3_3.mt0
 sweep: tran tran192  begin, stop_t=  5.00E-09 #sweeps= 101 cpu clock= 3.27E+00
 sweep: tran tran192  end, cpu clock= 3.28E+00 peak memory=     397 mb
 dcop: begin dcop, cpu clock= 3.28E+00
 dcop: end dcop, cpu clock= 3.28E+00 peak memory=     397 mb tot_iter=    1934
 output: ex3_3.mt0
 sweep: tran tran193  begin, stop_t=  5.00E-09 #sweeps= 101 cpu clock= 3.28E+00
 sweep: tran tran193  end, cpu clock= 3.29E+00 peak memory=     397 mb
 dcop: begin dcop, cpu clock= 3.29E+00
 dcop: end dcop, cpu clock= 3.30E+00 peak memory=     397 mb tot_iter=    1943
 output: ex3_3.mt0
 sweep: tran tran194  begin, stop_t=  5.00E-09 #sweeps= 101 cpu clock= 3.30E+00
 sweep: tran tran194  end, cpu clock= 3.31E+00 peak memory=     397 mb
 dcop: begin dcop, cpu clock= 3.32E+00
 dcop: end dcop, cpu clock= 3.32E+00 peak memory=     397 mb tot_iter=    1953
 output: ex3_3.mt0
 sweep: tran tran195  begin, stop_t=  5.00E-09 #sweeps= 101 cpu clock= 3.32E+00
 sweep: tran tran195  end, cpu clock= 3.33E+00 peak memory=     397 mb
 dcop: begin dcop, cpu clock= 3.33E+00
 dcop: end dcop, cpu clock= 3.33E+00 peak memory=     397 mb tot_iter=    1963
 output: ex3_3.mt0
 sweep: tran tran196  begin, stop_t=  5.00E-09 #sweeps= 101 cpu clock= 3.33E+00
 sweep: tran tran196  end, cpu clock= 3.34E+00 peak memory=     397 mb
 dcop: begin dcop, cpu clock= 3.34E+00
 dcop: end dcop, cpu clock= 3.35E+00 peak memory=     397 mb tot_iter=    1973
 output: ex3_3.mt0
 sweep: tran tran197  begin, stop_t=  5.00E-09 #sweeps= 101 cpu clock= 3.35E+00
 sweep: tran tran197  end, cpu clock= 3.36E+00 peak memory=     397 mb
 dcop: begin dcop, cpu clock= 3.36E+00
 dcop: end dcop, cpu clock= 3.37E+00 peak memory=     397 mb tot_iter=    1983
 output: ex3_3.mt0
 sweep: tran tran198  begin, stop_t=  5.00E-09 #sweeps= 101 cpu clock= 3.37E+00
 sweep: tran tran198  end, cpu clock= 3.38E+00 peak memory=     397 mb
 dcop: begin dcop, cpu clock= 3.38E+00
 dcop: end dcop, cpu clock= 3.39E+00 peak memory=     397 mb tot_iter=    1993
 output: ex3_3.mt0
 sweep: tran tran199  begin, stop_t=  5.00E-09 #sweeps= 101 cpu clock= 3.39E+00
 sweep: tran tran199  end, cpu clock= 3.40E+00 peak memory=     397 mb
 dcop: begin dcop, cpu clock= 3.40E+00
 dcop: end dcop, cpu clock= 3.40E+00 peak memory=     397 mb tot_iter=    2003
 output: ex3_3.mt0
 sweep: tran tran200  begin, stop_t=  5.00E-09 #sweeps= 101 cpu clock= 3.40E+00
 sweep: tran tran200  end, cpu clock= 3.41E+00 peak memory=     397 mb
 dcop: begin dcop, cpu clock= 3.41E+00
 dcop: end dcop, cpu clock= 3.41E+00 peak memory=     397 mb tot_iter=    2013
 output: ex3_3.mt0
 sweep: tran tran201  begin, stop_t=  5.00E-09 #sweeps= 101 cpu clock= 3.41E+00
 sweep: tran tran201  end, cpu clock= 3.42E+00 peak memory=     397 mb
 dcop: begin dcop, cpu clock= 3.42E+00
 dcop: end dcop, cpu clock= 3.43E+00 peak memory=     397 mb tot_iter=    2023
 output: ex3_3.mt0
 sweep: tran tran202  begin, stop_t=  5.00E-09 #sweeps= 101 cpu clock= 3.43E+00
 sweep: tran tran202  end, cpu clock= 3.44E+00 peak memory=     397 mb
 dcop: begin dcop, cpu clock= 3.44E+00
 dcop: end dcop, cpu clock= 3.44E+00 peak memory=     397 mb tot_iter=    2033
 output: ex3_3.mt0
 sweep: tran tran203  begin, stop_t=  5.00E-09 #sweeps= 101 cpu clock= 3.44E+00
 sweep: tran tran203  end, cpu clock= 3.45E+00 peak memory=     397 mb
 dcop: begin dcop, cpu clock= 3.45E+00
 dcop: end dcop, cpu clock= 3.45E+00 peak memory=     397 mb tot_iter=    2042
 output: ex3_3.mt0
 sweep: tran tran204  begin, stop_t=  5.00E-09 #sweeps= 101 cpu clock= 3.45E+00
 sweep: tran tran204  end, cpu clock= 3.46E+00 peak memory=     397 mb
 dcop: begin dcop, cpu clock= 3.46E+00
 dcop: end dcop, cpu clock= 3.47E+00 peak memory=     397 mb tot_iter=    2052
 output: ex3_3.mt0
 sweep: tran tran205  begin, stop_t=  5.00E-09 #sweeps= 101 cpu clock= 3.47E+00
 sweep: tran tran205  end, cpu clock= 3.48E+00 peak memory=     397 mb
 dcop: begin dcop, cpu clock= 3.48E+00
 dcop: end dcop, cpu clock= 3.48E+00 peak memory=     397 mb tot_iter=    2062
 output: ex3_3.mt0
 sweep: tran tran206  begin, stop_t=  5.00E-09 #sweeps= 101 cpu clock= 3.48E+00
 sweep: tran tran206  end, cpu clock= 3.49E+00 peak memory=     397 mb
 dcop: begin dcop, cpu clock= 3.50E+00
 dcop: end dcop, cpu clock= 3.50E+00 peak memory=     397 mb tot_iter=    2071
 output: ex3_3.mt0
 sweep: tran tran207  begin, stop_t=  5.00E-09 #sweeps= 101 cpu clock= 3.50E+00
 sweep: tran tran207  end, cpu clock= 3.51E+00 peak memory=     397 mb
 dcop: begin dcop, cpu clock= 3.51E+00
 dcop: end dcop, cpu clock= 3.51E+00 peak memory=     397 mb tot_iter=    2081
 output: ex3_3.mt0
 sweep: tran tran208  begin, stop_t=  5.00E-09 #sweeps= 101 cpu clock= 3.52E+00
 sweep: tran tran208  end, cpu clock= 3.53E+00 peak memory=     397 mb
 dcop: begin dcop, cpu clock= 3.53E+00
 dcop: end dcop, cpu clock= 3.53E+00 peak memory=     397 mb tot_iter=    2091
 output: ex3_3.mt0
 sweep: tran tran209  begin, stop_t=  5.00E-09 #sweeps= 101 cpu clock= 3.53E+00
 sweep: tran tran209  end, cpu clock= 3.54E+00 peak memory=     397 mb
 dcop: begin dcop, cpu clock= 3.54E+00
 dcop: end dcop, cpu clock= 3.55E+00 peak memory=     397 mb tot_iter=    2101
 output: ex3_3.mt0
 sweep: tran tran210  begin, stop_t=  5.00E-09 #sweeps= 101 cpu clock= 3.55E+00
 sweep: tran tran210  end, cpu clock= 3.56E+00 peak memory=     397 mb
 dcop: begin dcop, cpu clock= 3.56E+00
 dcop: end dcop, cpu clock= 3.56E+00 peak memory=     397 mb tot_iter=    2111
 output: ex3_3.mt0
 sweep: tran tran211  begin, stop_t=  5.00E-09 #sweeps= 101 cpu clock= 3.56E+00
 sweep: tran tran211  end, cpu clock= 3.57E+00 peak memory=     397 mb
 dcop: begin dcop, cpu clock= 3.58E+00
 dcop: end dcop, cpu clock= 3.58E+00 peak memory=     397 mb tot_iter=    2121
 output: ex3_3.mt0
 sweep: tran tran212  begin, stop_t=  5.00E-09 #sweeps= 101 cpu clock= 3.58E+00
 sweep: tran tran212  end, cpu clock= 3.59E+00 peak memory=     397 mb
 dcop: begin dcop, cpu clock= 3.59E+00
 dcop: end dcop, cpu clock= 3.59E+00 peak memory=     397 mb tot_iter=    2131
 output: ex3_3.mt0
 sweep: tran tran213  begin, stop_t=  5.00E-09 #sweeps= 101 cpu clock= 3.59E+00
 sweep: tran tran213  end, cpu clock= 3.60E+00 peak memory=     397 mb
 dcop: begin dcop, cpu clock= 3.60E+00
 dcop: end dcop, cpu clock= 3.61E+00 peak memory=     397 mb tot_iter=    2141
 output: ex3_3.mt0
 sweep: tran tran214  begin, stop_t=  5.00E-09 #sweeps= 101 cpu clock= 3.61E+00
 sweep: tran tran214  end, cpu clock= 3.61E+00 peak memory=     397 mb
 dcop: begin dcop, cpu clock= 3.61E+00
 dcop: end dcop, cpu clock= 3.62E+00 peak memory=     397 mb tot_iter=    2151
 output: ex3_3.mt0
 sweep: tran tran215  begin, stop_t=  5.00E-09 #sweeps= 101 cpu clock= 3.62E+00
 sweep: tran tran215  end, cpu clock= 3.63E+00 peak memory=     397 mb
 dcop: begin dcop, cpu clock= 3.63E+00
 dcop: end dcop, cpu clock= 3.64E+00 peak memory=     397 mb tot_iter=    2161
 output: ex3_3.mt0
 sweep: tran tran216  begin, stop_t=  5.00E-09 #sweeps= 101 cpu clock= 3.64E+00
 sweep: tran tran216  end, cpu clock= 3.64E+00 peak memory=     397 mb
 dcop: begin dcop, cpu clock= 3.65E+00
 dcop: end dcop, cpu clock= 3.65E+00 peak memory=     397 mb tot_iter=    2171
 output: ex3_3.mt0
 sweep: tran tran217  begin, stop_t=  5.00E-09 #sweeps= 101 cpu clock= 3.65E+00
 sweep: tran tran217  end, cpu clock= 3.66E+00 peak memory=     397 mb
 dcop: begin dcop, cpu clock= 3.66E+00
 dcop: end dcop, cpu clock= 3.67E+00 peak memory=     397 mb tot_iter=    2181
 output: ex3_3.mt0
 sweep: tran tran218  begin, stop_t=  5.00E-09 #sweeps= 101 cpu clock= 3.67E+00
 sweep: tran tran218  end, cpu clock= 3.68E+00 peak memory=     397 mb
 dcop: begin dcop, cpu clock= 3.68E+00
 dcop: end dcop, cpu clock= 3.69E+00 peak memory=     397 mb tot_iter=    2191
 output: ex3_3.mt0
 sweep: tran tran219  begin, stop_t=  5.00E-09 #sweeps= 101 cpu clock= 3.69E+00
 sweep: tran tran219  end, cpu clock= 3.69E+00 peak memory=     397 mb
 dcop: begin dcop, cpu clock= 3.69E+00
 dcop: end dcop, cpu clock= 3.70E+00 peak memory=     397 mb tot_iter=    2201
 output: ex3_3.mt0
 sweep: tran tran220  begin, stop_t=  5.00E-09 #sweeps= 101 cpu clock= 3.70E+00
 sweep: tran tran220  end, cpu clock= 3.71E+00 peak memory=     397 mb
 dcop: begin dcop, cpu clock= 3.71E+00
 dcop: end dcop, cpu clock= 3.71E+00 peak memory=     397 mb tot_iter=    2211
 output: ex3_3.mt0
 sweep: tran tran221  begin, stop_t=  5.00E-09 #sweeps= 101 cpu clock= 3.71E+00
 sweep: tran tran221  end, cpu clock= 3.72E+00 peak memory=     397 mb
 dcop: begin dcop, cpu clock= 3.73E+00
 dcop: end dcop, cpu clock= 3.73E+00 peak memory=     397 mb tot_iter=    2221
 output: ex3_3.mt0
 sweep: tran tran222  begin, stop_t=  5.00E-09 #sweeps= 101 cpu clock= 3.73E+00
 sweep: tran tran222  end, cpu clock= 3.74E+00 peak memory=     397 mb
 dcop: begin dcop, cpu clock= 3.74E+00
 dcop: end dcop, cpu clock= 3.75E+00 peak memory=     397 mb tot_iter=    2231
 output: ex3_3.mt0
 sweep: tran tran223  begin, stop_t=  5.00E-09 #sweeps= 101 cpu clock= 3.75E+00
 sweep: tran tran223  end, cpu clock= 3.76E+00 peak memory=     397 mb
 dcop: begin dcop, cpu clock= 3.76E+00
 dcop: end dcop, cpu clock= 3.76E+00 peak memory=     397 mb tot_iter=    2241
 output: ex3_3.mt0
 sweep: tran tran224  begin, stop_t=  5.00E-09 #sweeps= 101 cpu clock= 3.76E+00
 sweep: tran tran224  end, cpu clock= 3.77E+00 peak memory=     397 mb
 dcop: begin dcop, cpu clock= 3.77E+00
 dcop: end dcop, cpu clock= 3.78E+00 peak memory=     397 mb tot_iter=    2251
 output: ex3_3.mt0
 sweep: tran tran225  begin, stop_t=  5.00E-09 #sweeps= 101 cpu clock= 3.78E+00
 sweep: tran tran225  end, cpu clock= 3.79E+00 peak memory=     397 mb
 dcop: begin dcop, cpu clock= 3.79E+00
 dcop: end dcop, cpu clock= 3.79E+00 peak memory=     397 mb tot_iter=    2261
 output: ex3_3.mt0
 sweep: tran tran226  begin, stop_t=  5.00E-09 #sweeps= 101 cpu clock= 3.79E+00
 sweep: tran tran226  end, cpu clock= 3.80E+00 peak memory=     397 mb
 dcop: begin dcop, cpu clock= 3.80E+00
 dcop: end dcop, cpu clock= 3.81E+00 peak memory=     397 mb tot_iter=    2271
 output: ex3_3.mt0
 sweep: tran tran227  begin, stop_t=  5.00E-09 #sweeps= 101 cpu clock= 3.81E+00
 sweep: tran tran227  end, cpu clock= 3.82E+00 peak memory=     397 mb
 dcop: begin dcop, cpu clock= 3.82E+00
 dcop: end dcop, cpu clock= 3.83E+00 peak memory=     397 mb tot_iter=    2281
 output: ex3_3.mt0
 sweep: tran tran228  begin, stop_t=  5.00E-09 #sweeps= 101 cpu clock= 3.83E+00
 sweep: tran tran228  end, cpu clock= 3.83E+00 peak memory=     397 mb
 dcop: begin dcop, cpu clock= 3.83E+00
 dcop: end dcop, cpu clock= 3.84E+00 peak memory=     397 mb tot_iter=    2291
 output: ex3_3.mt0
 sweep: tran tran229  begin, stop_t=  5.00E-09 #sweeps= 101 cpu clock= 3.84E+00
 sweep: tran tran229  end, cpu clock= 3.85E+00 peak memory=     397 mb
 dcop: begin dcop, cpu clock= 3.85E+00
 dcop: end dcop, cpu clock= 3.86E+00 peak memory=     397 mb tot_iter=    2301
 output: ex3_3.mt0
 sweep: tran tran230  begin, stop_t=  5.00E-09 #sweeps= 101 cpu clock= 3.86E+00
 sweep: tran tran230  end, cpu clock= 3.86E+00 peak memory=     397 mb
 dcop: begin dcop, cpu clock= 3.86E+00
 dcop: end dcop, cpu clock= 3.87E+00 peak memory=     397 mb tot_iter=    2311
 output: ex3_3.mt0
 sweep: tran tran231  begin, stop_t=  5.00E-09 #sweeps= 101 cpu clock= 3.87E+00
 sweep: tran tran231  end, cpu clock= 3.88E+00 peak memory=     397 mb
 dcop: begin dcop, cpu clock= 3.89E+00
 dcop: end dcop, cpu clock= 3.89E+00 peak memory=     397 mb tot_iter=    2321
 output: ex3_3.mt0
 sweep: tran tran232  begin, stop_t=  5.00E-09 #sweeps= 101 cpu clock= 3.89E+00
 sweep: tran tran232  end, cpu clock= 3.90E+00 peak memory=     397 mb
 dcop: begin dcop, cpu clock= 3.90E+00
 dcop: end dcop, cpu clock= 3.90E+00 peak memory=     397 mb tot_iter=    2331
 output: ex3_3.mt0
 sweep: tran tran233  begin, stop_t=  5.00E-09 #sweeps= 101 cpu clock= 3.90E+00
 sweep: tran tran233  end, cpu clock= 3.91E+00 peak memory=     397 mb
 dcop: begin dcop, cpu clock= 3.91E+00
 dcop: end dcop, cpu clock= 3.92E+00 peak memory=     397 mb tot_iter=    2341
 output: ex3_3.mt0
 sweep: tran tran234  begin, stop_t=  5.00E-09 #sweeps= 101 cpu clock= 3.92E+00
 sweep: tran tran234  end, cpu clock= 3.92E+00 peak memory=     397 mb
 dcop: begin dcop, cpu clock= 3.93E+00
 dcop: end dcop, cpu clock= 3.93E+00 peak memory=     397 mb tot_iter=    2350
 output: ex3_3.mt0
 sweep: tran tran235  begin, stop_t=  5.00E-09 #sweeps= 101 cpu clock= 3.93E+00
 sweep: tran tran235  end, cpu clock= 3.94E+00 peak memory=     397 mb
 dcop: begin dcop, cpu clock= 3.94E+00
 dcop: end dcop, cpu clock= 3.95E+00 peak memory=     397 mb tot_iter=    2360
 output: ex3_3.mt0
 sweep: tran tran236  begin, stop_t=  5.00E-09 #sweeps= 101 cpu clock= 3.95E+00
 sweep: tran tran236  end, cpu clock= 3.96E+00 peak memory=     397 mb
 dcop: begin dcop, cpu clock= 3.96E+00
 dcop: end dcop, cpu clock= 3.96E+00 peak memory=     397 mb tot_iter=    2370
 output: ex3_3.mt0
 sweep: tran tran237  begin, stop_t=  5.00E-09 #sweeps= 101 cpu clock= 3.96E+00
 sweep: tran tran237  end, cpu clock= 3.97E+00 peak memory=     397 mb
 dcop: begin dcop, cpu clock= 3.97E+00
 dcop: end dcop, cpu clock= 3.97E+00 peak memory=     397 mb tot_iter=    2380
 output: ex3_3.mt0
 sweep: tran tran238  begin, stop_t=  5.00E-09 #sweeps= 101 cpu clock= 3.97E+00
 sweep: tran tran238  end, cpu clock= 3.98E+00 peak memory=     397 mb
 dcop: begin dcop, cpu clock= 3.98E+00
 dcop: end dcop, cpu clock= 3.99E+00 peak memory=     397 mb tot_iter=    2390
 output: ex3_3.mt0
 sweep: tran tran239  begin, stop_t=  5.00E-09 #sweeps= 101 cpu clock= 3.99E+00
 sweep: tran tran239  end, cpu clock= 4.00E+00 peak memory=     397 mb
 dcop: begin dcop, cpu clock= 4.00E+00
 dcop: end dcop, cpu clock= 4.00E+00 peak memory=     397 mb tot_iter=    2400
 output: ex3_3.mt0
 sweep: tran tran240  begin, stop_t=  5.00E-09 #sweeps= 101 cpu clock= 4.00E+00
 sweep: tran tran240  end, cpu clock= 4.01E+00 peak memory=     397 mb
 dcop: begin dcop, cpu clock= 4.01E+00
 dcop: end dcop, cpu clock= 4.02E+00 peak memory=     397 mb tot_iter=    2410
 output: ex3_3.mt0
 sweep: tran tran241  begin, stop_t=  5.00E-09 #sweeps= 101 cpu clock= 4.02E+00
 sweep: tran tran241  end, cpu clock= 4.02E+00 peak memory=     397 mb
 dcop: begin dcop, cpu clock= 4.02E+00
 dcop: end dcop, cpu clock= 4.03E+00 peak memory=     397 mb tot_iter=    2420
 output: ex3_3.mt0
 sweep: tran tran242  begin, stop_t=  5.00E-09 #sweeps= 101 cpu clock= 4.03E+00
 sweep: tran tran242  end, cpu clock= 4.04E+00 peak memory=     397 mb
 dcop: begin dcop, cpu clock= 4.04E+00
 dcop: end dcop, cpu clock= 4.04E+00 peak memory=     397 mb tot_iter=    2430
 output: ex3_3.mt0
 sweep: tran tran243  begin, stop_t=  5.00E-09 #sweeps= 101 cpu clock= 4.04E+00
 sweep: tran tran243  end, cpu clock= 4.05E+00 peak memory=     397 mb
 dcop: begin dcop, cpu clock= 4.05E+00
 dcop: end dcop, cpu clock= 4.06E+00 peak memory=     397 mb tot_iter=    2440
 output: ex3_3.mt0
 sweep: tran tran244  begin, stop_t=  5.00E-09 #sweeps= 101 cpu clock= 4.06E+00
 sweep: tran tran244  end, cpu clock= 4.07E+00 peak memory=     397 mb
 dcop: begin dcop, cpu clock= 4.07E+00
 dcop: end dcop, cpu clock= 4.07E+00 peak memory=     397 mb tot_iter=    2450
 output: ex3_3.mt0
 sweep: tran tran245  begin, stop_t=  5.00E-09 #sweeps= 101 cpu clock= 4.07E+00
 sweep: tran tran245  end, cpu clock= 4.08E+00 peak memory=     397 mb
 dcop: begin dcop, cpu clock= 4.08E+00
 dcop: end dcop, cpu clock= 4.08E+00 peak memory=     397 mb tot_iter=    2460
 output: ex3_3.mt0
 sweep: tran tran246  begin, stop_t=  5.00E-09 #sweeps= 101 cpu clock= 4.09E+00
 sweep: tran tran246  end, cpu clock= 4.09E+00 peak memory=     397 mb
 dcop: begin dcop, cpu clock= 4.09E+00
 dcop: end dcop, cpu clock= 4.10E+00 peak memory=     397 mb tot_iter=    2470
 output: ex3_3.mt0
 sweep: tran tran247  begin, stop_t=  5.00E-09 #sweeps= 101 cpu clock= 4.10E+00
 sweep: tran tran247  end, cpu clock= 4.11E+00 peak memory=     397 mb
 dcop: begin dcop, cpu clock= 4.11E+00
 dcop: end dcop, cpu clock= 4.11E+00 peak memory=     397 mb tot_iter=    2480
 output: ex3_3.mt0
 sweep: tran tran248  begin, stop_t=  5.00E-09 #sweeps= 101 cpu clock= 4.11E+00
 sweep: tran tran248  end, cpu clock= 4.12E+00 peak memory=     397 mb
 dcop: begin dcop, cpu clock= 4.13E+00
 dcop: end dcop, cpu clock= 4.13E+00 peak memory=     397 mb tot_iter=    2490
 output: ex3_3.mt0
 sweep: tran tran249  begin, stop_t=  5.00E-09 #sweeps= 101 cpu clock= 4.13E+00
 sweep: tran tran249  end, cpu clock= 4.14E+00 peak memory=     397 mb
 dcop: begin dcop, cpu clock= 4.14E+00
 dcop: end dcop, cpu clock= 4.14E+00 peak memory=     397 mb tot_iter=    2500
 output: ex3_3.mt0
 sweep: tran tran250  begin, stop_t=  5.00E-09 #sweeps= 101 cpu clock= 4.14E+00
 sweep: tran tran250  end, cpu clock= 4.15E+00 peak memory=     397 mb
 dcop: begin dcop, cpu clock= 4.16E+00
 dcop: end dcop, cpu clock= 4.16E+00 peak memory=     397 mb tot_iter=    2510
 output: ex3_3.mt0
 sweep: tran tran251  begin, stop_t=  5.00E-09 #sweeps= 101 cpu clock= 4.16E+00
 sweep: tran tran251  end, cpu clock= 4.17E+00 peak memory=     397 mb
 dcop: begin dcop, cpu clock= 4.17E+00
 dcop: end dcop, cpu clock= 4.17E+00 peak memory=     397 mb tot_iter=    2520
 output: ex3_3.mt0
 sweep: tran tran252  begin, stop_t=  5.00E-09 #sweeps= 101 cpu clock= 4.17E+00
 sweep: tran tran252  end, cpu clock= 4.18E+00 peak memory=     397 mb
 dcop: begin dcop, cpu clock= 4.18E+00
 dcop: end dcop, cpu clock= 4.19E+00 peak memory=     397 mb tot_iter=    2530
 output: ex3_3.mt0
 sweep: tran tran253  begin, stop_t=  5.00E-09 #sweeps= 101 cpu clock= 4.19E+00
 sweep: tran tran253  end, cpu clock= 4.20E+00 peak memory=     397 mb
 dcop: begin dcop, cpu clock= 4.20E+00
 dcop: end dcop, cpu clock= 4.20E+00 peak memory=     397 mb tot_iter=    2540
 output: ex3_3.mt0
 sweep: tran tran254  begin, stop_t=  5.00E-09 #sweeps= 101 cpu clock= 4.20E+00
 sweep: tran tran254  end, cpu clock= 4.21E+00 peak memory=     397 mb
 dcop: begin dcop, cpu clock= 4.21E+00
 dcop: end dcop, cpu clock= 4.22E+00 peak memory=     397 mb tot_iter=    2550
 output: ex3_3.mt0
 sweep: tran tran255  begin, stop_t=  5.00E-09 #sweeps= 101 cpu clock= 4.22E+00
 sweep: tran tran255  end, cpu clock= 4.23E+00 peak memory=     397 mb
 dcop: begin dcop, cpu clock= 4.23E+00
 dcop: end dcop, cpu clock= 4.23E+00 peak memory=     397 mb tot_iter=    2560
 output: ex3_3.mt0
 sweep: tran tran256  begin, stop_t=  5.00E-09 #sweeps= 101 cpu clock= 4.23E+00
 sweep: tran tran256  end, cpu clock= 4.24E+00 peak memory=     397 mb
 dcop: begin dcop, cpu clock= 4.24E+00
 dcop: end dcop, cpu clock= 4.25E+00 peak memory=     397 mb tot_iter=    2570
 output: ex3_3.mt0
 sweep: tran tran257  begin, stop_t=  5.00E-09 #sweeps= 101 cpu clock= 4.25E+00
 sweep: tran tran257  end, cpu clock= 4.26E+00 peak memory=     397 mb
 dcop: begin dcop, cpu clock= 4.26E+00
 dcop: end dcop, cpu clock= 4.26E+00 peak memory=     397 mb tot_iter=    2580
 output: ex3_3.mt0
 sweep: tran tran258  begin, stop_t=  5.00E-09 #sweeps= 101 cpu clock= 4.26E+00
 sweep: tran tran258  end, cpu clock= 4.27E+00 peak memory=     397 mb
 dcop: begin dcop, cpu clock= 4.27E+00
 dcop: end dcop, cpu clock= 4.27E+00 peak memory=     397 mb tot_iter=    2590
 output: ex3_3.mt0
 sweep: tran tran259  begin, stop_t=  5.00E-09 #sweeps= 101 cpu clock= 4.27E+00
 sweep: tran tran259  end, cpu clock= 4.28E+00 peak memory=     397 mb
 dcop: begin dcop, cpu clock= 4.29E+00
 dcop: end dcop, cpu clock= 4.29E+00 peak memory=     397 mb tot_iter=    2600
 output: ex3_3.mt0
 sweep: tran tran260  begin, stop_t=  5.00E-09 #sweeps= 101 cpu clock= 4.29E+00
 sweep: tran tran260  end, cpu clock= 4.30E+00 peak memory=     397 mb
 dcop: begin dcop, cpu clock= 4.30E+00
 dcop: end dcop, cpu clock= 4.30E+00 peak memory=     397 mb tot_iter=    2610
 output: ex3_3.mt0
 sweep: tran tran261  begin, stop_t=  5.00E-09 #sweeps= 101 cpu clock= 4.30E+00
 sweep: tran tran261  end, cpu clock= 4.31E+00 peak memory=     397 mb
 dcop: begin dcop, cpu clock= 4.31E+00
 dcop: end dcop, cpu clock= 4.32E+00 peak memory=     397 mb tot_iter=    2620
 output: ex3_3.mt0
 sweep: tran tran262  begin, stop_t=  5.00E-09 #sweeps= 101 cpu clock= 4.32E+00
 sweep: tran tran262  end, cpu clock= 4.33E+00 peak memory=     397 mb
 dcop: begin dcop, cpu clock= 4.33E+00
 dcop: end dcop, cpu clock= 4.33E+00 peak memory=     397 mb tot_iter=    2630
 output: ex3_3.mt0
 sweep: tran tran263  begin, stop_t=  5.00E-09 #sweeps= 101 cpu clock= 4.33E+00
 sweep: tran tran263  end, cpu clock= 4.34E+00 peak memory=     397 mb
 dcop: begin dcop, cpu clock= 4.34E+00
 dcop: end dcop, cpu clock= 4.35E+00 peak memory=     397 mb tot_iter=    2640
 output: ex3_3.mt0
 sweep: tran tran264  begin, stop_t=  5.00E-09 #sweeps= 101 cpu clock= 4.35E+00
 sweep: tran tran264  end, cpu clock= 4.36E+00 peak memory=     397 mb
 dcop: begin dcop, cpu clock= 4.36E+00
 dcop: end dcop, cpu clock= 4.36E+00 peak memory=     397 mb tot_iter=    2650
 output: ex3_3.mt0
 sweep: tran tran265  begin, stop_t=  5.00E-09 #sweeps= 101 cpu clock= 4.36E+00
 sweep: tran tran265  end, cpu clock= 4.37E+00 peak memory=     397 mb
 dcop: begin dcop, cpu clock= 4.37E+00
 dcop: end dcop, cpu clock= 4.37E+00 peak memory=     397 mb tot_iter=    2660
 output: ex3_3.mt0
 sweep: tran tran266  begin, stop_t=  5.00E-09 #sweeps= 101 cpu clock= 4.38E+00
 sweep: tran tran266  end, cpu clock= 4.39E+00 peak memory=     397 mb
 dcop: begin dcop, cpu clock= 4.39E+00
 dcop: end dcop, cpu clock= 4.39E+00 peak memory=     397 mb tot_iter=    2670
 output: ex3_3.mt0
 sweep: tran tran267  begin, stop_t=  5.00E-09 #sweeps= 101 cpu clock= 4.39E+00
 sweep: tran tran267  end, cpu clock= 4.40E+00 peak memory=     397 mb
 dcop: begin dcop, cpu clock= 4.40E+00
 dcop: end dcop, cpu clock= 4.40E+00 peak memory=     397 mb tot_iter=    2680
 output: ex3_3.mt0
 sweep: tran tran268  begin, stop_t=  5.00E-09 #sweeps= 101 cpu clock= 4.41E+00
 sweep: tran tran268  end, cpu clock= 4.41E+00 peak memory=     397 mb
 dcop: begin dcop, cpu clock= 4.42E+00
 dcop: end dcop, cpu clock= 4.42E+00 peak memory=     397 mb tot_iter=    2690
 output: ex3_3.mt0
 sweep: tran tran269  begin, stop_t=  5.00E-09 #sweeps= 101 cpu clock= 4.42E+00
 sweep: tran tran269  end, cpu clock= 4.43E+00 peak memory=     397 mb
 dcop: begin dcop, cpu clock= 4.44E+00
[...]
 dcop: begin dcop, cpu clock= 1.39E+01
 dcop: end dcop, cpu clock= 1.39E+01 peak memory=     397 mb tot_iter=    9269
 output: ex3_3.mt0
 sweep: tran tran932  begin, stop_t=  5.00E-09 #sweeps= 101 cpu clock= 1.39E+01
 sweep: tran tran932  end, cpu clock= 1.40E+01 peak memory=     397 mb
 dcop: begin dcop, cpu clock= 1.40E+01
 dcop: end dcop, cpu clock= 1.40E+01 peak memory=     397 mb tot_iter=    9279
 output: ex3_3.mt0
 sweep: tran tran933  begin, stop_t=  5.00E-09 #sweeps= 101 cpu clock= 1.40E+01
 sweep: tran tran933  end, cpu clock= 1.40E+01 peak memory=     397 mb
 dcop: begin dcop, cpu clock= 1.40E+01
 dcop: end dcop, cpu clock= 1.40E+01 peak memory=     397 mb tot_iter=    9289
 output: ex3_3.mt0
 sweep: tran tran934  begin, stop_t=  5.00E-09 #sweeps= 101 cpu clock= 1.40E+01
 sweep: tran tran934  end, cpu clock= 1.40E+01 peak memory=     397 mb
 dcop: begin dcop, cpu clock= 1.40E+01
 dcop: end dcop, cpu clock= 1.40E+01 peak memory=     397 mb tot_iter=    9299
 output: ex3_3.mt0
 sweep: tran tran935  begin, stop_t=  5.00E-09 #sweeps= 101 cpu clock= 1.40E+01
 sweep: tran tran935  end, cpu clock= 1.40E+01 peak memory=     397 mb
 dcop: begin dcop, cpu clock= 1.40E+01
 dcop: end dcop, cpu clock= 1.40E+01 peak memory=     397 mb tot_iter=    9309
 output: ex3_3.mt0
 sweep: tran tran936  begin, stop_t=  5.00E-09 #sweeps= 101 cpu clock= 1.40E+01
 sweep: tran tran936  end, cpu clock= 1.40E+01 peak memory=     397 mb
 dcop: begin dcop, cpu clock= 1.40E+01
 dcop: end dcop, cpu clock= 1.40E+01 peak memory=     397 mb tot_iter=    9319
 output: ex3_3.mt0
 sweep: tran tran937  begin, stop_t=  5.00E-09 #sweeps= 101 cpu clock= 1.40E+01
 sweep: tran tran937  end, cpu clock= 1.40E+01 peak memory=     397 mb
 dcop: begin dcop, cpu clock= 1.40E+01
 dcop: end dcop, cpu clock= 1.40E+01 peak memory=     397 mb tot_iter=    9329
 output: ex3_3.mt0
 sweep: tran tran938  begin, stop_t=  5.00E-09 #sweeps= 101 cpu clock= 1.40E+01
 sweep: tran tran938  end, cpu clock= 1.40E+01 peak memory=     397 mb
 dcop: begin dcop, cpu clock= 1.40E+01
 dcop: end dcop, cpu clock= 1.40E+01 peak memory=     397 mb tot_iter=    9339
 output: ex3_3.mt0
 sweep: tran tran939  begin, stop_t=  5.00E-09 #sweeps= 101 cpu clock= 1.40E+01
 sweep: tran tran939  end, cpu clock= 1.41E+01 peak memory=     397 mb
 dcop: begin dcop, cpu clock= 1.41E+01
 dcop: end dcop, cpu clock= 1.41E+01 peak memory=     397 mb tot_iter=    9349
 output: ex3_3.mt0
 sweep: tran tran940  begin, stop_t=  5.00E-09 #sweeps= 101 cpu clock= 1.41E+01
 sweep: tran tran940  end, cpu clock= 1.41E+01 peak memory=     397 mb
 dcop: begin dcop, cpu clock= 1.41E+01
 dcop: end dcop, cpu clock= 1.41E+01 peak memory=     397 mb tot_iter=    9359
 output: ex3_3.mt0
 sweep: tran tran941  begin, stop_t=  5.00E-09 #sweeps= 101 cpu clock= 1.41E+01
 sweep: tran tran941  end, cpu clock= 1.41E+01 peak memory=     397 mb
 dcop: begin dcop, cpu clock= 1.41E+01
 dcop: end dcop, cpu clock= 1.41E+01 peak memory=     397 mb tot_iter=    9369
 output: ex3_3.mt0
 sweep: tran tran942  begin, stop_t=  5.00E-09 #sweeps= 101 cpu clock= 1.41E+01
 sweep: tran tran942  end, cpu clock= 1.41E+01 peak memory=     397 mb
 dcop: begin dcop, cpu clock= 1.41E+01
 dcop: end dcop, cpu clock= 1.41E+01 peak memory=     397 mb tot_iter=    9379
 output: ex3_3.mt0
 sweep: tran tran943  begin, stop_t=  5.00E-09 #sweeps= 101 cpu clock= 1.41E+01
 sweep: tran tran943  end, cpu clock= 1.41E+01 peak memory=     397 mb
 dcop: begin dcop, cpu clock= 1.41E+01
 dcop: end dcop, cpu clock= 1.41E+01 peak memory=     397 mb tot_iter=    9389
 output: ex3_3.mt0
 sweep: tran tran944  begin, stop_t=  5.00E-09 #sweeps= 101 cpu clock= 1.41E+01
 sweep: tran tran944  end, cpu clock= 1.41E+01 peak memory=     397 mb
 dcop: begin dcop, cpu clock= 1.41E+01
 dcop: end dcop, cpu clock= 1.41E+01 peak memory=     397 mb tot_iter=    9399
 output: ex3_3.mt0
 sweep: tran tran945  begin, stop_t=  5.00E-09 #sweeps= 101 cpu clock= 1.41E+01
 sweep: tran tran945  end, cpu clock= 1.41E+01 peak memory=     397 mb
 dcop: begin dcop, cpu clock= 1.41E+01
 dcop: end dcop, cpu clock= 1.41E+01 peak memory=     397 mb tot_iter=    9409
 output: ex3_3.mt0
 sweep: tran tran946  begin, stop_t=  5.00E-09 #sweeps= 101 cpu clock= 1.41E+01
 sweep: tran tran946  end, cpu clock= 1.41E+01 peak memory=     397 mb
 dcop: begin dcop, cpu clock= 1.42E+01
 dcop: end dcop, cpu clock= 1.42E+01 peak memory=     397 mb tot_iter=    9419
 output: ex3_3.mt0
 sweep: tran tran947  begin, stop_t=  5.00E-09 #sweeps= 101 cpu clock= 1.42E+01
 sweep: tran tran947  end, cpu clock= 1.42E+01 peak memory=     397 mb
 dcop: begin dcop, cpu clock= 1.42E+01
 dcop: end dcop, cpu clock= 1.42E+01 peak memory=     397 mb tot_iter=    9429
 output: ex3_3.mt0
 sweep: tran tran948  begin, stop_t=  5.00E-09 #sweeps= 101 cpu clock= 1.42E+01
 sweep: tran tran948  end, cpu clock= 1.42E+01 peak memory=     397 mb
 dcop: begin dcop, cpu clock= 1.42E+01
 dcop: end dcop, cpu clock= 1.42E+01 peak memory=     397 mb tot_iter=    9439
 output: ex3_3.mt0
 sweep: tran tran949  begin, stop_t=  5.00E-09 #sweeps= 101 cpu clock= 1.42E+01
 sweep: tran tran949  end, cpu clock= 1.42E+01 peak memory=     397 mb
 dcop: begin dcop, cpu clock= 1.42E+01
 dcop: end dcop, cpu clock= 1.42E+01 peak memory=     397 mb tot_iter=    9449
 output: ex3_3.mt0
 sweep: tran tran950  begin, stop_t=  5.00E-09 #sweeps= 101 cpu clock= 1.42E+01
 sweep: tran tran950  end, cpu clock= 1.42E+01 peak memory=     397 mb
 dcop: begin dcop, cpu clock= 1.42E+01
 dcop: end dcop, cpu clock= 1.42E+01 peak memory=     397 mb tot_iter=    9459
 output: ex3_3.mt0
 sweep: tran tran951  begin, stop_t=  5.00E-09 #sweeps= 101 cpu clock= 1.42E+01
 sweep: tran tran951  end, cpu clock= 1.42E+01 peak memory=     397 mb
 dcop: begin dcop, cpu clock= 1.42E+01
 dcop: end dcop, cpu clock= 1.42E+01 peak memory=     397 mb tot_iter=    9468
 output: ex3_3.mt0
 sweep: tran tran952  begin, stop_t=  5.00E-09 #sweeps= 101 cpu clock= 1.42E+01
 sweep: tran tran952  end, cpu clock= 1.42E+01 peak memory=     397 mb
 dcop: begin dcop, cpu clock= 1.42E+01
 dcop: end dcop, cpu clock= 1.42E+01 peak memory=     397 mb tot_iter=    9477
 output: ex3_3.mt0
 sweep: tran tran953  begin, stop_t=  5.00E-09 #sweeps= 101 cpu clock= 1.42E+01
 sweep: tran tran953  end, cpu clock= 1.42E+01 peak memory=     397 mb
 dcop: begin dcop, cpu clock= 1.42E+01
 dcop: end dcop, cpu clock= 1.42E+01 peak memory=     397 mb tot_iter=    9486
 output: ex3_3.mt0
 sweep: tran tran954  begin, stop_t=  5.00E-09 #sweeps= 101 cpu clock= 1.42E+01
 sweep: tran tran954  end, cpu clock= 1.43E+01 peak memory=     397 mb
 dcop: begin dcop, cpu clock= 1.43E+01
 dcop: end dcop, cpu clock= 1.43E+01 peak memory=     397 mb tot_iter=    9496
 output: ex3_3.mt0
 sweep: tran tran955  begin, stop_t=  5.00E-09 #sweeps= 101 cpu clock= 1.43E+01
 sweep: tran tran955  end, cpu clock= 1.43E+01 peak memory=     397 mb
 dcop: begin dcop, cpu clock= 1.43E+01
 dcop: end dcop, cpu clock= 1.43E+01 peak memory=     397 mb tot_iter=    9506
 output: ex3_3.mt0
 sweep: tran tran956  begin, stop_t=  5.00E-09 #sweeps= 101 cpu clock= 1.43E+01
 sweep: tran tran956  end, cpu clock= 1.43E+01 peak memory=     397 mb
 dcop: begin dcop, cpu clock= 1.43E+01
 dcop: end dcop, cpu clock= 1.43E+01 peak memory=     397 mb tot_iter=    9516
 output: ex3_3.mt0
 sweep: tran tran957  begin, stop_t=  5.00E-09 #sweeps= 101 cpu clock= 1.43E+01
 sweep: tran tran957  end, cpu clock= 1.43E+01 peak memory=     397 mb
 dcop: begin dcop, cpu clock= 1.43E+01
 dcop: end dcop, cpu clock= 1.43E+01 peak memory=     397 mb tot_iter=    9526
 output: ex3_3.mt0
 sweep: tran tran958  begin, stop_t=  5.00E-09 #sweeps= 101 cpu clock= 1.43E+01
 sweep: tran tran958  end, cpu clock= 1.43E+01 peak memory=     397 mb
 dcop: begin dcop, cpu clock= 1.43E+01
 dcop: end dcop, cpu clock= 1.43E+01 peak memory=     397 mb tot_iter=    9536
 output: ex3_3.mt0
 sweep: tran tran959  begin, stop_t=  5.00E-09 #sweeps= 101 cpu clock= 1.43E+01
 sweep: tran tran959  end, cpu clock= 1.43E+01 peak memory=     397 mb
 dcop: begin dcop, cpu clock= 1.43E+01
 dcop: end dcop, cpu clock= 1.43E+01 peak memory=     397 mb tot_iter=    9546
 output: ex3_3.mt0
 sweep: tran tran960  begin, stop_t=  5.00E-09 #sweeps= 101 cpu clock= 1.43E+01
 sweep: tran tran960  end, cpu clock= 1.43E+01 peak memory=     397 mb
 dcop: begin dcop, cpu clock= 1.43E+01
 dcop: end dcop, cpu clock= 1.43E+01 peak memory=     397 mb tot_iter=    9556
 output: ex3_3.mt0
 sweep: tran tran961  begin, stop_t=  5.00E-09 #sweeps= 101 cpu clock= 1.43E+01
 sweep: tran tran961  end, cpu clock= 1.43E+01 peak memory=     397 mb
 dcop: begin dcop, cpu clock= 1.43E+01
 dcop: end dcop, cpu clock= 1.44E+01 peak memory=     397 mb tot_iter=    9566
 output: ex3_3.mt0
 sweep: tran tran962  begin, stop_t=  5.00E-09 #sweeps= 101 cpu clock= 1.44E+01
 sweep: tran tran962  end, cpu clock= 1.44E+01 peak memory=     397 mb
 dcop: begin dcop, cpu clock= 1.44E+01
 dcop: end dcop, cpu clock= 1.44E+01 peak memory=     397 mb tot_iter=    9576
 output: ex3_3.mt0
 sweep: tran tran963  begin, stop_t=  5.00E-09 #sweeps= 101 cpu clock= 1.44E+01
 sweep: tran tran963  end, cpu clock= 1.44E+01 peak memory=     397 mb
 dcop: begin dcop, cpu clock= 1.44E+01
 dcop: end dcop, cpu clock= 1.44E+01 peak memory=     397 mb tot_iter=    9585
 output: ex3_3.mt0
 sweep: tran tran964  begin, stop_t=  5.00E-09 #sweeps= 101 cpu clock= 1.44E+01
 sweep: tran tran964  end, cpu clock= 1.44E+01 peak memory=     397 mb
 dcop: begin dcop, cpu clock= 1.44E+01
 dcop: end dcop, cpu clock= 1.44E+01 peak memory=     397 mb tot_iter=    9595
 output: ex3_3.mt0
 sweep: tran tran965  begin, stop_t=  5.00E-09 #sweeps= 101 cpu clock= 1.44E+01
 sweep: tran tran965  end, cpu clock= 1.44E+01 peak memory=     397 mb
 dcop: begin dcop, cpu clock= 1.44E+01
 dcop: end dcop, cpu clock= 1.44E+01 peak memory=     397 mb tot_iter=    9605
 output: ex3_3.mt0
 sweep: tran tran966  begin, stop_t=  5.00E-09 #sweeps= 101 cpu clock= 1.44E+01
 sweep: tran tran966  end, cpu clock= 1.44E+01 peak memory=     397 mb
 dcop: begin dcop, cpu clock= 1.44E+01
 dcop: end dcop, cpu clock= 1.44E+01 peak memory=     397 mb tot_iter=    9615
 output: ex3_3.mt0
 sweep: tran tran967  begin, stop_t=  5.00E-09 #sweeps= 101 cpu clock= 1.44E+01
 sweep: tran tran967  end, cpu clock= 1.44E+01 peak memory=     397 mb
 dcop: begin dcop, cpu clock= 1.44E+01
 dcop: end dcop, cpu clock= 1.44E+01 peak memory=     397 mb tot_iter=    9625
 output: ex3_3.mt0
 sweep: tran tran968  begin, stop_t=  5.00E-09 #sweeps= 101 cpu clock= 1.44E+01
 sweep: tran tran968  end, cpu clock= 1.44E+01 peak memory=     397 mb
 dcop: begin dcop, cpu clock= 1.44E+01
 dcop: end dcop, cpu clock= 1.44E+01 peak memory=     397 mb tot_iter=    9635
 output: ex3_3.mt0
 sweep: tran tran969  begin, stop_t=  5.00E-09 #sweeps= 101 cpu clock= 1.44E+01
 sweep: tran tran969  end, cpu clock= 1.45E+01 peak memory=     397 mb
 dcop: begin dcop, cpu clock= 1.45E+01
 dcop: end dcop, cpu clock= 1.45E+01 peak memory=     397 mb tot_iter=    9645
 output: ex3_3.mt0
 sweep: tran tran970  begin, stop_t=  5.00E-09 #sweeps= 101 cpu clock= 1.45E+01
 sweep: tran tran970  end, cpu clock= 1.45E+01 peak memory=     397 mb
 dcop: begin dcop, cpu clock= 1.45E+01
 dcop: end dcop, cpu clock= 1.45E+01 peak memory=     397 mb tot_iter=    9655
 output: ex3_3.mt0
 sweep: tran tran971  begin, stop_t=  5.00E-09 #sweeps= 101 cpu clock= 1.45E+01
 sweep: tran tran971  end, cpu clock= 1.45E+01 peak memory=     397 mb
 dcop: begin dcop, cpu clock= 1.45E+01
 dcop: end dcop, cpu clock= 1.45E+01 peak memory=     397 mb tot_iter=    9665
 output: ex3_3.mt0
 sweep: tran tran972  begin, stop_t=  5.00E-09 #sweeps= 101 cpu clock= 1.45E+01
 sweep: tran tran972  end, cpu clock= 1.45E+01 peak memory=     397 mb
 dcop: begin dcop, cpu clock= 1.45E+01
 dcop: end dcop, cpu clock= 1.45E+01 peak memory=     397 mb tot_iter=    9675
 output: ex3_3.mt0
 sweep: tran tran973  begin, stop_t=  5.00E-09 #sweeps= 101 cpu clock= 1.45E+01
 sweep: tran tran973  end, cpu clock= 1.45E+01 peak memory=     397 mb
 dcop: begin dcop, cpu clock= 1.45E+01
 dcop: end dcop, cpu clock= 1.45E+01 peak memory=     397 mb tot_iter=    9684
 output: ex3_3.mt0
 sweep: tran tran974  begin, stop_t=  5.00E-09 #sweeps= 101 cpu clock= 1.45E+01
 sweep: tran tran974  end, cpu clock= 1.45E+01 peak memory=     397 mb
 dcop: begin dcop, cpu clock= 1.45E+01
 dcop: end dcop, cpu clock= 1.45E+01 peak memory=     397 mb tot_iter=    9694
 output: ex3_3.mt0
 sweep: tran tran975  begin, stop_t=  5.00E-09 #sweeps= 101 cpu clock= 1.45E+01
 sweep: tran tran975  end, cpu clock= 1.45E+01 peak memory=     397 mb
 dcop: begin dcop, cpu clock= 1.45E+01
 dcop: end dcop, cpu clock= 1.45E+01 peak memory=     397 mb tot_iter=    9704
 output: ex3_3.mt0
 sweep: tran tran976  begin, stop_t=  5.00E-09 #sweeps= 101 cpu clock= 1.45E+01
 sweep: tran tran976  end, cpu clock= 1.46E+01 peak memory=     397 mb
 dcop: begin dcop, cpu clock= 1.46E+01
 dcop: end dcop, cpu clock= 1.46E+01 peak memory=     397 mb tot_iter=    9714
 output: ex3_3.mt0
 sweep: tran tran977  begin, stop_t=  5.00E-09 #sweeps= 101 cpu clock= 1.46E+01
 sweep: tran tran977  end, cpu clock= 1.46E+01 peak memory=     397 mb
 dcop: begin dcop, cpu clock= 1.46E+01
 dcop: end dcop, cpu clock= 1.46E+01 peak memory=     397 mb tot_iter=    9724
 output: ex3_3.mt0
 sweep: tran tran978  begin, stop_t=  5.00E-09 #sweeps= 101 cpu clock= 1.46E+01
 sweep: tran tran978  end, cpu clock= 1.46E+01 peak memory=     397 mb
 dcop: begin dcop, cpu clock= 1.46E+01
 dcop: end dcop, cpu clock= 1.46E+01 peak memory=     397 mb tot_iter=    9734
 output: ex3_3.mt0
 sweep: tran tran979  begin, stop_t=  5.00E-09 #sweeps= 101 cpu clock= 1.46E+01
 sweep: tran tran979  end, cpu clock= 1.46E+01 peak memory=     397 mb
 dcop: begin dcop, cpu clock= 1.46E+01
 dcop: end dcop, cpu clock= 1.46E+01 peak memory=     397 mb tot_iter=    9744
 output: ex3_3.mt0
 sweep: tran tran980  begin, stop_t=  5.00E-09 #sweeps= 101 cpu clock= 1.46E+01
 sweep: tran tran980  end, cpu clock= 1.46E+01 peak memory=     397 mb
 dcop: begin dcop, cpu clock= 1.46E+01
 dcop: end dcop, cpu clock= 1.46E+01 peak memory=     397 mb tot_iter=    9754
 output: ex3_3.mt0
 sweep: tran tran981  begin, stop_t=  5.00E-09 #sweeps= 101 cpu clock= 1.46E+01
 sweep: tran tran981  end, cpu clock= 1.46E+01 peak memory=     397 mb
 dcop: begin dcop, cpu clock= 1.46E+01
 dcop: end dcop, cpu clock= 1.46E+01 peak memory=     397 mb tot_iter=    9763
 output: ex3_3.mt0
 sweep: tran tran982  begin, stop_t=  5.00E-09 #sweeps= 101 cpu clock= 1.46E+01
 sweep: tran tran982  end, cpu clock= 1.46E+01 peak memory=     397 mb
 dcop: begin dcop, cpu clock= 1.46E+01
 dcop: end dcop, cpu clock= 1.46E+01 peak memory=     397 mb tot_iter=    9773
 output: ex3_3.mt0
 sweep: tran tran983  begin, stop_t=  5.00E-09 #sweeps= 101 cpu clock= 1.46E+01
 sweep: tran tran983  end, cpu clock= 1.47E+01 peak memory=     397 mb
 dcop: begin dcop, cpu clock= 1.47E+01
 dcop: end dcop, cpu clock= 1.47E+01 peak memory=     397 mb tot_iter=    9783
 output: ex3_3.mt0
 sweep: tran tran984  begin, stop_t=  5.00E-09 #sweeps= 101 cpu clock= 1.47E+01
 sweep: tran tran984  end, cpu clock= 1.47E+01 peak memory=     397 mb
 dcop: begin dcop, cpu clock= 1.47E+01
 dcop: end dcop, cpu clock= 1.47E+01 peak memory=     397 mb tot_iter=    9793
 output: ex3_3.mt0
 sweep: tran tran985  begin, stop_t=  5.00E-09 #sweeps= 101 cpu clock= 1.47E+01
 sweep: tran tran985  end, cpu clock= 1.47E+01 peak memory=     397 mb
 dcop: begin dcop, cpu clock= 1.47E+01
 dcop: end dcop, cpu clock= 1.47E+01 peak memory=     397 mb tot_iter=    9803
 output: ex3_3.mt0
 sweep: tran tran986  begin, stop_t=  5.00E-09 #sweeps= 101 cpu clock= 1.47E+01
 sweep: tran tran986  end, cpu clock= 1.47E+01 peak memory=     397 mb
 dcop: begin dcop, cpu clock= 1.47E+01
 dcop: end dcop, cpu clock= 1.47E+01 peak memory=     397 mb tot_iter=    9812
 output: ex3_3.mt0
 sweep: tran tran987  begin, stop_t=  5.00E-09 #sweeps= 101 cpu clock= 1.47E+01
 sweep: tran tran987  end, cpu clock= 1.47E+01 peak memory=     397 mb
 dcop: begin dcop, cpu clock= 1.47E+01
 dcop: end dcop, cpu clock= 1.47E+01 peak memory=     397 mb tot_iter=    9822
 output: ex3_3.mt0
 sweep: tran tran988  begin, stop_t=  5.00E-09 #sweeps= 101 cpu clock= 1.47E+01
 sweep: tran tran988  end, cpu clock= 1.47E+01 peak memory=     397 mb
 dcop: begin dcop, cpu clock= 1.47E+01
 dcop: end dcop, cpu clock= 1.47E+01 peak memory=     397 mb tot_iter=    9832
 output: ex3_3.mt0
 sweep: tran tran989  begin, stop_t=  5.00E-09 #sweeps= 101 cpu clock= 1.47E+01
 sweep: tran tran989  end, cpu clock= 1.47E+01 peak memory=     397 mb
 dcop: begin dcop, cpu clock= 1.47E+01
 dcop: end dcop, cpu clock= 1.47E+01 peak memory=     397 mb tot_iter=    9842
 output: ex3_3.mt0
 sweep: tran tran990  begin, stop_t=  5.00E-09 #sweeps= 101 cpu clock= 1.47E+01
 sweep: tran tran990  end, cpu clock= 1.48E+01 peak memory=     397 mb
 dcop: begin dcop, cpu clock= 1.48E+01
 dcop: end dcop, cpu clock= 1.48E+01 peak memory=     397 mb tot_iter=    9852
 output: ex3_3.mt0
 sweep: tran tran991  begin, stop_t=  5.00E-09 #sweeps= 101 cpu clock= 1.48E+01
 sweep: tran tran991  end, cpu clock= 1.48E+01 peak memory=     397 mb
 dcop: begin dcop, cpu clock= 1.48E+01
 dcop: end dcop, cpu clock= 1.48E+01 peak memory=     397 mb tot_iter=    9862
 output: ex3_3.mt0
 sweep: tran tran992  begin, stop_t=  5.00E-09 #sweeps= 101 cpu clock= 1.48E+01
 sweep: tran tran992  end, cpu clock= 1.48E+01 peak memory=     397 mb
 dcop: begin dcop, cpu clock= 1.48E+01
 dcop: end dcop, cpu clock= 1.48E+01 peak memory=     397 mb tot_iter=    9872
 output: ex3_3.mt0
 sweep: tran tran993  begin, stop_t=  5.00E-09 #sweeps= 101 cpu clock= 1.48E+01
 sweep: tran tran993  end, cpu clock= 1.48E+01 peak memory=     397 mb
 dcop: begin dcop, cpu clock= 1.48E+01
 dcop: end dcop, cpu clock= 1.48E+01 peak memory=     397 mb tot_iter=    9882
 output: ex3_3.mt0
 sweep: tran tran994  begin, stop_t=  5.00E-09 #sweeps= 101 cpu clock= 1.48E+01
 sweep: tran tran994  end, cpu clock= 1.48E+01 peak memory=     397 mb
 dcop: begin dcop, cpu clock= 1.48E+01
 dcop: end dcop, cpu clock= 1.48E+01 peak memory=     397 mb tot_iter=    9892
 output: ex3_3.mt0
 sweep: tran tran995  begin, stop_t=  5.00E-09 #sweeps= 101 cpu clock= 1.48E+01
 sweep: tran tran995  end, cpu clock= 1.48E+01 peak memory=     397 mb
 dcop: begin dcop, cpu clock= 1.48E+01
 dcop: end dcop, cpu clock= 1.48E+01 peak memory=     397 mb tot_iter=    9902
 output: ex3_3.mt0
 sweep: tran tran996  begin, stop_t=  5.00E-09 #sweeps= 101 cpu clock= 1.48E+01
 sweep: tran tran996  end, cpu clock= 1.48E+01 peak memory=     397 mb
 dcop: begin dcop, cpu clock= 1.48E+01
 dcop: end dcop, cpu clock= 1.48E+01 peak memory=     397 mb tot_iter=    9912
 output: ex3_3.mt0
 sweep: tran tran997  begin, stop_t=  5.00E-09 #sweeps= 101 cpu clock= 1.48E+01
 sweep: tran tran997  end, cpu clock= 1.49E+01 peak memory=     397 mb
 dcop: begin dcop, cpu clock= 1.49E+01
 dcop: end dcop, cpu clock= 1.49E+01 peak memory=     397 mb tot_iter=    9921
 output: ex3_3.mt0
 sweep: tran tran998  begin, stop_t=  5.00E-09 #sweeps= 101 cpu clock= 1.49E+01
 sweep: tran tran998  end, cpu clock= 1.49E+01 peak memory=     397 mb
 dcop: begin dcop, cpu clock= 1.49E+01
 dcop: end dcop, cpu clock= 1.49E+01 peak memory=     397 mb tot_iter=    9931
 output: ex3_3.mt0
 sweep: tran tran999  begin, stop_t=  5.00E-09 #sweeps= 101 cpu clock= 1.49E+01
 sweep: tran tran999  end, cpu clock= 1.49E+01 peak memory=     397 mb
 dcop: begin dcop, cpu clock= 1.49E+01
 dcop: end dcop, cpu clock= 1.49E+01 peak memory=     397 mb tot_iter=    9941
 output: ex3_3.mt0
 sweep: tran tran1000 begin, stop_t=  5.00E-09 #sweeps= 101 cpu clock= 1.49E+01
 sweep: tran tran1000 end, cpu clock= 1.49E+01 peak memory=     397 mb
 sweep: monte_carlo     monte_carlo     1 end
>info:         ***** hspice job concluded
 lic: Release hspice token(s)
