Using: /RAID2/cad/synopsys/hspice/2020.03-sp2-2/hspice/linux64/hspice ex3_3..sp
  Start time: Thu May  7 14:44:46 2026
           job total runtime         0.00 seconds


 lic: total license checkout elapse time:        0.00(s)
