$DATA1 SOURCE='HSPICE' VERSION='Q-2020.03-SP2-2 linux64'
$OPTION MEASFORM=1
$ This file format is subject to change 
$ The seperator is :@:                  
$index=1 is a nominal sample in Monte Carlo.
$option ignore_global_variation = no              
$option ignore_local_variation = no               
$option ignore_interconnect_variation = no        
$option ignore_spatial_variation = no   
$option ignore_variation = no 
$option sampling_method  = srs                  
$option normal_limit     =      20.0000       
$option replicates       =   1      
$option random_generator = MCG                          
$option seed             =  223706  
$option stream           =   1      
$option output_sigma_value =  1     
$option use_agauss_format = yes     
$option screening_method = pearson  
$Global Variable number:        0                               
$Local Variable number:        4                                
.TITLE '.title sa latch threshold voltage variation'
index mpl:@:****:@:dvth:@:ILNC mpr:@:****:@:dvth:@:ILNC mnl:@:****:@:dvth:@:ILNC mnr:@:****:@:dvth:@:ILNC
1    0.    0.    0.    0. 
2 -7.647e-02   -1.2821   -0.1740    0.7364 
3   -1.5877   -0.1586   -0.8220  8.182e-02 
4    0.8175   -1.9662    0.3803    0.4455 
5   -1.3736    1.3148   -0.6246    2.2095 
6    1.8128    0.2714   -2.2485   -0.7143 
7    0.2356    0.8461   -0.2369    0.2139 
8   -1.2648   -1.1234   -0.7997   -0.6817 
9    0.2922    0.7178    2.2949   -1.1380 
10   -1.4085   -1.0292    1.1375   -0.1578 
11    1.1657    0.5554   -1.5542   -0.4919 
12   -1.1639    0.1162    0.6953    1.4290 
13   -2.5814    0.2520    0.4279   -0.2217 
14   -1.3626   -0.3070   -1.6554   -1.5353 
15    2.3278 -8.663e-02   -1.1137    0.7140 
16    0.2207   -1.0028   -1.4437   -0.4454 
17    1.0017   -1.2984   -1.1421   -0.8323 
18    0.5301   -1.3716    0.6579    0.4747 
19    0.3165    0.6269    1.2880    0.8409 
20    1.5980   -1.8469  7.454e-02    2.4618 
21   -1.9396   -1.5184    1.2897    0.5356 
22    1.7643   -0.7668   -0.2504    0.4209 
23   -1.3081   -0.8091    0.4329   -0.1362 
24    0.7886   -0.4143   -0.9394   -0.8530 
25    0.3658   -0.7326   -0.5366    0.6294 
26   -1.1949   -0.2920    0.8234 -7.461e-02 
27   -0.2898    0.9410    0.5400  4.669e-02 
28   -2.0093 -6.977e-03    1.0247    0.5292 
29   -1.0890   -0.1264   -0.3831   -0.1615 
30    0.1873    1.6847    1.2813   -0.4908 
31    1.0328   -0.3787   -0.7585    0.6808 
32    0.1987   -0.5673   -1.5907    1.7278 
33   -0.4944   -1.0354    2.2250   -0.5602 
34    0.8734    0.9772   -0.1914   -1.4808 
35    0.4203   -1.0294  1.133e-02    2.3368 
36    0.3145   -0.7432   -0.7484   -0.3082 
37   -2.9787   -0.6330   -0.9767    0.7557 
38    1.2109   -1.1767   -0.2422    0.1111 
39   -0.1829    0.2196   -1.7128  1.911e-02 
40    0.1591    0.4781   -1.3380   -0.2757 
41    0.2200    0.4186    0.6066    1.9599 
42    0.8442    0.9627   -1.7732   -0.9552 
43   -0.2274    0.3872  8.201e-02   -2.0292 
44    1.3325    0.6254   -0.3375   -1.1330 
45   -0.2991    0.4307    0.6860   -0.1616 
46   -1.1672 -9.624e-02   -1.9098  8.523e-02 
47    1.0949   -0.9587    0.8754    0.1291 
48    1.2461   -0.6478    0.5896    1.0574 
49    1.2899   -1.0643    0.4532    0.8822 
50    0.4298    1.6022   -1.1089   -0.4845 
51    0.1963   -0.8109  6.631e-02    1.4506 
52   -0.5554   -0.4214    2.0865 -9.005e-03 
53    0.1405   -0.4681   -0.6977    1.2438 
54    0.9296   -0.2456   -0.3833  9.493e-02 
55   -0.3019   -0.9188   -0.7397   -0.1514 
56   -0.7379  8.929e-02   -1.7517   -2.6108 
57    0.9628    0.1510 -9.887e-02    1.4681 
58    2.0069   -1.6150   -0.9182 -7.247e-02 
59    0.3875  7.768e-02    0.7208    1.4991 
60   -1.5699    0.1247  8.806e-02    0.4804 
61   -0.6720   -1.5378   -1.8454   -0.2397 
62   -1.5795 -7.801e-02    0.8199    1.1197 
63   -1.3876    1.6102 -1.308e-02   -0.2041 
64   -0.8781   -0.9590   -0.2339   -1.2756 
65 -2.127e-02    0.4856    0.1926    1.0458 
66    0.3834    0.2549    0.2395    0.9692 
67    1.6302   -0.1269    0.4828   -0.6841 
68    0.9537    0.2648    0.7410    0.5359 
69    1.7580    1.7432    1.1738    0.3609 
70   -0.4348    0.9987    0.2389   -1.2855 
71    1.0904    2.0370    0.1911    0.7488 
72    1.9247    0.9472   -1.0226    1.3992 
73    0.7700    0.4654    0.8771   -0.6985 
74    1.3687    0.8683   -0.2827   -0.9590 
75    0.5099    0.3318   -0.9503  5.695e-02 
76    0.2083    0.7117   -1.1598   -1.2352 
77    0.4951  9.025e-03   -1.0813    1.7976 
78   -1.1669 -4.438e-02   -1.5786   -0.1139 
79    0.5147   -2.7427    0.1960    1.3340 
80   -1.4055    1.2931    0.1461  7.080e-02 
81    0.5340   -0.2274  4.429e-02    0.8227 
82    1.3347    1.1923   -0.6445   -0.5228 
83   -1.1783    1.2792    0.9687    0.5807 
84   -0.4059   -0.5842   -0.2429   -0.8383 
85   -0.1025    2.6078   -1.4458    0.4420 
86   -1.4579  5.691e-02   -2.1002    0.2387 
87    0.4798    1.6165    0.2744    0.8185 
88   -0.5624  3.388e-02    0.3589 -9.560e-02 
89   -0.7965   -0.7750    0.6950   -0.8242 
90   -1.3210    0.1740   -0.7879    0.1463 
91   -1.3079    0.4320    1.2533    0.2023 
92    0.8481   -0.9620   -0.3265    1.0708 
93   -1.0656   -0.2671   -0.3229    0.6195 
94   -0.6532    1.0149    0.5170   -0.6948 
95 -6.332e-02    1.9914    1.1511    0.2498 
96   -0.5493    0.2711 -5.585e-02   -1.7126 
97   -0.6922    2.6421    0.1188   -0.2932 
98    2.3020    0.1608   -2.0330   -0.6261 
99   -1.3979   -1.0142 -1.544e-02   -0.7608 
100   -0.2244   -1.2498   -1.5790   -0.3568 
101   -0.1000   -0.9492   -0.5371    0.9782 
102   -1.4272   -1.5578   -0.3024   -0.3162 
103    1.8848    1.4008    2.0103    0.4391 
104    0.5190   -1.2720   -1.5103    1.1989 
105    1.4378    0.6609    0.8415   -0.3985 
106    1.7883    0.4068   -1.8922    0.2687 
107   -0.3412   -0.2114  3.051e-02    0.1965 
108    0.6350   -1.0546    1.7521    1.1700 
109   -0.8872    1.5541   -1.4751    0.7762 
110    0.4371   -0.4973    0.2605    1.2995 
111   -0.1610    0.4539    0.2564   -0.9282 
112   -0.6442   -0.3327    1.6289    0.9444 
113   -1.1257   -1.6345    0.4468   -0.1883 
114   -1.8980    0.3348   -0.8392   -0.1558 
115    1.2362   -0.3798   -0.6573    0.3927 
116   -1.1393   -1.3493 -1.489e-02 -3.177e-03 
117    1.4508    1.3527 -7.978e-02  5.367e-02 
118    1.3789    0.2317    0.7227   -1.4216 
119   -0.2468 -9.417e-02   -1.4066   -1.5527 
120  9.462e-02  8.678e-02   -1.1431    1.0054 
121    1.0291   -1.3730   -0.2792    0.8008 
122    1.3106   -0.7265   -0.3287    1.2741 
123   -1.0652   -0.8133    0.1941    1.1521 
124    1.8972    0.3776   -0.5560    1.5149 
125    2.2133   -0.1334    0.4965   -0.2353 
126   -0.2099  9.565e-02   -0.3053   -1.5374 
127    2.6089    2.4416    0.1042   -1.1082 
128   -0.2520   -0.3912    1.9856    0.4019 
129   -1.7469   -1.3794    0.8421   -0.3608 
130    0.8427    0.8929   -1.4606    1.1086 
131    1.2181   -0.6328   -0.5763    2.1700 
132   -1.2722    0.7823   -0.7451   -0.4514 
133   -0.8024   -0.7122    1.8745   -0.1910 
134   -2.0506    1.0086   -0.3614   -0.3260 
135    0.1959    1.3869    0.2416   -0.1183 
136   -1.9714    0.3626   -0.9099   -1.1772 
137    1.6484   -0.1473   -0.8838    0.3239 
138    0.4070   -0.2387   -0.1000    0.3053 
139    0.6996    0.4870    1.3005   -0.7788 
140   -1.1498    0.9932   -0.4313    0.6607 
141    0.9160    1.3679    0.1114 -4.813e-02 
142    0.7524    0.7688   -1.8279   -1.0536 
143    0.9869   -1.0491    0.7597   -0.4885 
144   -0.4879    0.2819    1.3790    0.2323 
145   -1.5578    0.9422   -1.1213    2.2757 
146    0.9818   -0.4091   -0.9752   -0.6061 
147    1.5372    0.7695   -0.9186    0.7433 
148    0.5874   -0.3858    1.1337   -0.4273 
149    0.2227   -1.3341    1.2638   -1.8018 
150   -0.2634 -4.112e-02    1.0094   -0.1335 
151    0.5614    1.2089   -0.8132 -3.595e-02 
152    1.2901   -0.1802    0.7682    1.0382 
153   -1.1144    2.3343   -0.2300    0.1330 
154   -0.1053    0.5389   -1.2416    0.8601 
155 -5.496e-02   -1.4500    0.9587    0.7716 
156   -0.8159    0.3674   -0.5209   -0.8996 
157    1.4915   -1.0121   -0.2246    0.3160 
158    0.2949    1.8773    1.1024   -1.6117 
159    0.7424 -4.938e-02   -0.8397    0.1553 
160   -0.9813    1.5591   -0.7825   -0.5269 
161   -1.6257   -0.9963   -0.6461    0.2120 
162    1.2557   -0.8781    0.2556    0.8088 
163    2.0257   -2.2040 -7.326e-02   -0.5390 
164    1.2805    0.3431    1.4285   -0.3277 
165    0.6166   -0.4733    1.0339   -1.4576 
166    2.6279   -1.8124    0.3031   -0.1425 
167    1.6938   -0.2134    0.6457 -3.478e-03 
168    1.1771   -0.1255   -0.1568 -2.320e-02 
169   -0.2765   -0.8736 -3.038e-02   -2.6999 
170   -1.0876   -0.9417   -0.5619   -1.1476 
171    0.4221   -0.9087    0.6076    3.5665 
172   -1.4291   -0.2231   -0.3498    0.7950 
173    1.6458    0.5536   -0.5325   -0.1043 
174   -1.4021  4.412e-02    0.9919    1.4281 
175    0.8495   -1.4108   -1.3245    0.6694 
176  7.489e-04    0.9802   -1.6480   -0.7352 
177    1.3955    1.1667   -0.7599    0.3291 
178   -2.4945   -1.4421    0.5659   -0.3590 
179   -1.2709   -0.5408    1.5471    0.3805 
180    0.1703  3.486e-02   -0.6872    0.3679 
181   -0.2844    0.1750 -5.505e-02   -1.2384 
182    2.1105    0.2195   -1.1434   -1.2036 
183    0.1068   -1.2117    1.8508    0.1709 
184   -1.0854  3.613e-02    1.4705    0.7832 
185 -3.657e-02   -1.4149   -0.4358   -1.4792 
186   -0.1472   -0.4870    0.2978   -0.1258 
187   -1.3689   -0.1501    1.9985 -9.349e-02 
188   -0.5961   -2.3324    0.4937    0.9096 
189   -1.1399    0.7983    0.2228   -0.9076 
190    0.6872   -2.5063    0.4591   -0.6973 
191    0.5165 -9.513e-02    2.0652   -0.3155 
192    0.6746    2.1304   -1.5917    1.5407 
193    2.3077    0.1682    0.7292   -0.1148 
194   -0.3562   -0.1906   -0.8369   -2.1370 
195   -0.1934   -0.5858   -1.4613    2.0390 
196   -0.9939    0.7320 -5.144e-02   -0.2315 
197  1.413e-03   -0.3653   -1.6375    0.3961 
198   -1.0409    0.1488  3.734e-02    1.6082 
199   -1.4738 -8.444e-02   -0.3889   -0.6117 
200   -1.1479    1.9040   -0.4990    1.9016 
201   -0.3429    0.7494   -0.2669   -0.2106 
202    0.8194   -1.0129    2.4429   -0.1641 
203    0.4188   -0.9550    0.5176   -1.4494 
204 -4.465e-02  9.227e-02   -1.6228   -1.0308 
205    0.3960  7.222e-03    1.0013    0.5808 
206    0.3360   -1.4121    1.3320    0.1159 
207   -0.6309    0.2122   -1.5921   -1.5580 
208    0.3631   -0.1938 -6.434e-02    0.6733 
209    0.8405    0.8899   -1.6923   -2.3902 
210   -0.5683    0.2538   -1.6041   -0.4029 
211    2.5339   -0.1137    1.1370   -1.0072 
212   -0.3976    0.5712    0.3736    0.2559 
213   -2.0138  6.131e-02   -0.5675    1.5916 
214    0.6171    0.7324    1.3022    2.6439 
215   -1.2527    0.2524    1.5069   -0.1745 
216    1.4044    0.9710    1.6398  2.537e-02 
217    0.2784 -7.854e-02    0.9860 -7.967e-02 
218    0.8105    0.4931    0.3350   -0.2713 
219    1.0773   -0.3477   -0.1143    0.7588 
220    0.9479    1.5903   -0.6906   -0.8416 
221   -0.5459    0.3658 -7.060e-02    0.5170 
222   -1.2774    0.6755   -1.0162    1.6912 
223    0.2907   -0.2327   -0.2921   -1.2533 
224    0.8952    0.4858    1.2534   -1.4371 
225 -4.808e-03   -1.9178   -1.7123   -2.1304 
226    0.1252    0.2545  6.796e-02   -0.4599 
227   -2.6807   -0.6274   -0.5926   -1.2537 
228   -0.6846    1.1694   -0.8801    0.3648 
229    0.4681   -0.3209    0.5176    0.4257 
230    1.1572   -1.7112 -3.053e-02    0.5136 
231   -0.2371    0.5865    0.5141   -1.2880 
232   -0.2579    2.0995    0.9376  5.926e-02 
233   -1.1940   -1.0751   -2.2454   -1.2661 
234    0.3795    1.3086    0.7440    0.4977 
235   -2.6133   -0.7489   -0.8389   -1.5174 
236   -0.4182    0.8414    0.1478   -0.9605 
237    0.2063   -0.7672    0.1900 -7.066e-03 
238   -0.8384   -0.2742    1.1395    0.8658 
239    0.3936   -0.5398   -0.9492   -0.1301 
240    1.0591   -1.1161    1.2040    0.2074 
241   -1.0759   -1.2452    1.5959    0.7623 
242   -0.6122  1.782e-02   -0.2987    0.9882 
243  4.741e-02   -1.1829   -0.1613   -1.5948 
244   -0.2336    1.3277    0.5510    0.4826 
245    1.5268    0.5615    0.5789    1.2137 
246   -2.5756    0.3818    0.6444    1.1475 
247    2.7196  4.186e-02  7.971e-02   -2.3371 
248   -0.1138    0.5210   -0.5255   -0.6428 
249   -0.4931   -0.7305  6.485e-02   -1.2167 
250    1.0608    0.5381   -0.5756    1.4183 
251    0.7338    0.5647    0.5418    0.1039 
252    0.6174   -0.1305    0.1968    1.0587 
253    1.0935   -1.4643   -1.0410    0.3303 
254   -0.2369    0.3777    0.9302    0.3310 
255   -1.6913   -0.1029   -0.4975   -0.8478 
256   -2.1681    0.6583    0.6676 -2.460e-02 
257   -1.1802   -0.8499    0.5366    1.0172 
258    0.3547    1.4039    0.4482   -1.3680 
259   -2.0927  6.151e-02   -1.2604    1.8837 
260    0.6751   -1.7930    0.3209    0.1082 
261   -0.2722   -1.6278    0.9361   -0.1195 
262   -0.4480    0.6773    1.7178   -0.7130 
263   -0.4185    0.6204   -0.8952    0.7516 
264  7.136e-02    0.8133    0.4018    0.8205 
265   -1.2381    0.1453   -1.0956    0.4477 
266   -0.5072    1.4459   -0.1842   -1.2102 
267   -1.5530   -0.4466    0.5840    0.7262 
268    1.0416    0.8895  9.064e-02   -0.6164 
269   -0.3100    0.5844    1.6344    0.4854 
270   -0.9002  5.403e-02  2.642e-02    0.5288 
271    1.3473    0.6569 -1.638e-02   -1.7782 
272    1.0785    0.3575    0.3750   -0.6986 
273    1.8472    0.8853   -1.4330    1.0649 
274    0.6649    0.3321   -0.5187   -1.1177 
275    1.7716    0.2874   -0.2843   -0.2985 
276    0.7623   -0.5198   -1.7531    0.1336 
277    1.2348   -0.7663    1.5561   -1.6410 
278    0.6904   -0.8621   -0.2591    0.1913 
279    1.0632   -0.8320   -0.3864   -1.6458 
280    0.4857    0.1166    0.3602   -0.7573 
281    1.1786    0.4825    0.6030   -1.3882 
282   -1.1548    0.6020   -1.8182   -0.8276 
283    0.2204   -0.2022   -1.1567    0.3864 
284    1.6627   -1.2775 -3.497e-02   -0.5163 
285    0.4940    0.8569   -0.7004   -1.1835 
286    0.1900    1.2828    0.9657   -0.1155 
287 -8.927e-03    1.7966   -1.1802    0.6113 
288   -1.2975  6.534e-02   -0.3431    0.8262 
289    0.8863  8.800e-02   -0.3997    0.6237 
290    0.6598    0.7871    0.3030    1.1829 
291    0.3955   -0.5809   -1.2211    1.3233 
292   -0.6253    0.7903   -1.9322    0.3208 
293    0.1666    0.3778   -0.3958   -0.6541 
294 -8.368e-02    0.9335   -0.6089    1.4464 
295   -1.4520    0.1709   -0.8953    1.6291 
296  2.886e-02    0.7068   -0.6824    0.3096 
297    0.5066   -1.7359    0.2648   -2.5786 
298 -9.008e-02    0.2214   -0.4383   -1.5711 
299   -0.4371   -0.6826   -0.4960    0.3743 
300   -1.2201    0.3681  8.541e-02    0.5823 
301    0.4326   -0.6247    0.5163   -1.3677 
302   -1.6151    0.6501   -0.7884    1.8314 
303   -1.4464   -1.5621   -0.7241    2.0596 
304    0.9921   -0.3078    1.5885    0.7865 
305    0.5134    0.2196   -2.2656  9.009e-02 
306    0.2200    0.7945   -0.5353    0.5085 
307    0.3686   -0.7797   -1.8790    0.4343 
308    0.5453   -1.1387    0.3100    0.6032 
309   -1.3763  8.226e-02   -0.3338    0.7164 
310   -0.3378    0.2941    0.8990    1.7236 
311    0.2207    1.5229  3.857e-02    1.3829 
312   -1.6769   -1.2073   -2.3845    1.8787 
313   -1.7459    2.2536   -0.2910 -4.834e-02 
314  4.312e-02   -0.9155    0.4476   -0.6703 
315   -0.8860   -1.8425   -1.5782    1.9858 
316   -2.3844   -1.0671   -0.2879    0.5114 
317   -0.5107    0.2336    0.4431    0.3476 
318    1.2940   -0.8372   -0.1200    0.8428 
319   -0.4690   -0.4481    0.8090    1.3399 
320    0.1033    0.1733   -0.1793    0.8594 
321   -1.7205 -4.882e-02    0.4803   -0.8652 
322    0.2829   -0.8792    0.6340    1.3201 
323    1.3969   -1.5026   -0.9556    1.2669 
324    0.6306    0.1468    0.6508   -1.6951 
325   -0.4141   -0.8051   -1.4270   -1.5290 
326    0.5358    1.0223    0.5914    0.9174 
327   -1.0021    0.6346    1.5681   -0.3695 
328   -1.6955   -1.1658   -1.8304   -0.3639 
329   -0.4097   -1.1533    0.5368    1.6426 
330    2.0704   -0.4047   -0.1387    1.2191 
331   -1.9827   -0.5831   -1.1117   -0.9772 
332   -0.4660    0.1395 -9.590e-02   -0.9456 
333    0.2484   -0.4298   -1.1138   -0.1111 
334   -0.3196    1.4299  6.201e-02   -0.1902 
335   -0.2111    1.7837   -0.1581   -0.3122 
336    1.1372    0.5166   -2.1996   -1.4396 
337  3.311e-03   -1.8959   -0.2006   -0.3059 
338   -0.7983    0.9411   -0.6211  1.312e-02 
339   -1.1040    1.7159  3.050e-02    1.6677 
340    0.8588    0.5321   -0.5257   -1.3138 
341    0.9839    1.2675   -0.6976    0.9692 
342   -1.4615    0.2095   -1.0019    0.5516 
343   -1.0629   -2.0940   -1.1072   -0.7761 
344    0.7522    1.4000   -1.6313    0.4294 
345   -0.1268   -1.5334   -2.7753  9.177e-02 
346   -0.7058   -0.1787   -0.3648    0.5210 
347   -0.2648    0.2420    1.2003   -1.2838 
348    2.2108    1.1532    0.8866   -0.6067 
349    0.6802   -0.9826 -4.904e-02   -0.1290 
350    1.1258    0.7473    0.3460 -4.507e-02 
351   -1.0890   -0.9503   -1.1899   -0.2169 
352    0.7370   -0.2673    0.8347    0.5570 
353   -0.1830    1.6559    0.7566    0.7462 
354    1.0159   -0.1738   -0.3611   -0.8177 
355   -1.0855    0.4524   -0.5225    3.8003 
356   -0.3780   -0.2460    0.6650   -3.1398 
357   -1.8703   -1.1913    0.9519   -0.6117 
358   -1.4038    0.5449    0.3177   -0.2684 
359    0.1033   -0.1713    0.1107    0.9929 
360    0.3263   -1.1352    0.5297   -3.1794 
361   -0.2046    1.4437    0.3848    1.0277 
362  2.931e-02   -0.6324   -0.2348    0.4082 
363   -0.8908   -0.6298   -1.5052    1.3116 
364    0.2280   -1.5255   -1.2040   -2.0633 
365    1.6846    0.5787  4.672e-03   -0.2855 
366   -0.2832   -0.7410    0.5645   -1.0524 
367   -1.0044   -1.3146    0.5528   -2.2544 
368    1.3961   -0.4629   -0.1967    1.1843 
369   -0.6888   -0.4510    0.8589    1.6412 
370    0.3035    2.6280   -1.1002   -0.8852 
371   -1.8698    0.5439   -0.8385    0.3122 
372    0.5674    0.8923   -0.4686   -0.7626 
373    1.0264   -1.9365   -0.7186    0.3064 
374    1.3350    0.6816    1.4171    1.8326 
375    1.1586   -0.9600    0.8017   -0.6919 
376    0.8184   -1.5571   -0.4433   -1.1499 
377    0.7565    0.9163    0.3555  8.505e-02 
378   -0.8478    1.8229    0.6443   -0.2707 
379   -0.2365    0.9515   -1.0488    1.0097 
380   -1.2179   -0.3345    1.8457    0.3156 
381    1.9226 -3.693e-02    0.5935    1.2420 
382  2.759e-02    0.5872    0.3642    0.9147 
383    0.9734    0.8743    1.9055  4.946e-02 
384    1.3956    0.3376    0.9566   -1.4040 
385    1.6147   -1.0544   -0.6096   -0.9210 
386    0.6074   -1.1632   -0.2284    0.5860 
387   -2.1678   -0.2027    0.1864    0.2306 
388   -1.9440   -2.0920   -0.8052    1.7262 
389    0.4362    1.3538    0.1617   -0.9648 
390   -2.0464    0.7978   -0.1273   -1.6287 
391   -0.8324   -1.4231    1.7428   -0.8617 
392   -0.7637 -4.402e-03  6.095e-02   -1.0869 
393    0.1276  8.326e-02   -1.1995    1.0830 
394    0.5429    1.2137    0.4599    0.2753 
395   -0.2321    1.4557   -0.3523  4.985e-02 
396   -0.5365   -0.5255    0.7081    0.1776 
397    0.9321    1.7403   -0.2443    2.1699 
398   -1.0335   -1.1393   -0.1276   -0.1957 
399    0.6165    0.3535   -1.9811    1.2471 
400   -0.3202   -1.0744   -0.2247    0.7394 
401    1.8859   -0.7797   -0.5159   -0.4225 
402    1.8336    0.2768  7.698e-03    1.7618 
403   -0.5444    0.2915   -1.2282   -1.5710 
404   -0.3364   -0.2244    1.5107 -4.444e-02 
405    2.9970   -1.3420   -1.0436    1.3767 
406   -0.6243    0.2649   -1.2494    0.6317 
407   -0.1427   -0.7269   -1.2659   -0.8101 
408   -0.9934   -0.4728    0.4499    0.3900 
409   -0.4531    0.5262    2.0858    0.1172 
410    1.9650    1.3633   -1.0745    0.8297 
411    0.7305    0.3296    0.6492    0.3219 
412    1.2252 -3.517e-02   -0.3894    0.7481 
413    0.7143   -0.3843   -0.2159 -9.271e-02 
414   -0.4370    0.5461    0.5991  5.213e-02 
415   -1.2692   -1.8510    0.3547   -1.5739 
416   -0.9446   -0.1160    0.6976    0.3976 
417    0.5757    0.4234    0.7075   -0.7644 
418    0.2124  6.888e-02   -1.2855   -1.0931 
419   -0.6911    0.5670   -1.4773   -0.2064 
420   -0.2254   -1.2420   -1.1071    0.4580 
421   -1.3690 -7.592e-02    0.2665   -0.7553 
422    0.3786   -0.1105   -1.8636 -9.547e-02 
423   -0.3975   -0.8557   -1.1513    0.9204 
424 -5.394e-02   -0.8989    0.6775    0.5510 
425  6.764e-02    0.5290    0.9688   -1.2173 
426    1.8507   -0.3113    0.6633 -6.241e-02 
427   -1.4100  8.829e-02   -0.3074 -4.328e-02 
428    2.9046    0.4993    0.8228   -1.8389 
429    0.9887   -1.4637   -0.6132   -0.3632 
430   -0.7137    0.5634  1.746e-02    0.1233 
431    0.2970   -0.6237    0.1856    0.2959 
432   -0.8949   -0.5269   -0.4961    0.8946 
433    1.6581   -0.6106    0.1327  1.665e-02 
434    0.5998   -1.7558   -0.3111   -0.2579 
435   -1.0332    0.9564   -0.2747   -1.3414 
436    0.8161    0.2937   -1.4810    2.1529 
437    0.6287   -1.8581    0.3790    0.3719 
438    1.9036    0.2450   -0.1373   -1.1012 
439   -0.5813   -0.8165   -0.3401   -0.4802 
440   -1.5120    0.2152    0.2969    0.5506 
441   -0.7003  6.287e-02 -6.342e-02    2.2545 
442   -0.3217    1.0056    0.8103   -0.8401 
443    1.3951    1.1489   -0.9010    0.3070 
444    0.8665   -0.7832   -0.1876   -1.5360 
445   -0.5714   -0.6363    0.1000    0.5599 
446    0.8220    1.4185    1.1725   -0.3326 
447    0.1389   -0.8159   -0.8295   -0.9267 
448    0.4080   -0.4544   -1.1617    1.9070 
449   -0.4450    1.5210   -0.9868    0.1680 
450    0.5526   -0.8300    0.4704    0.1497 
451    0.5376    1.7228    1.2986 -9.060e-02 
452 -7.751e-05   -1.7698   -1.6528   -1.5802 
453    0.1841 -9.890e-02    1.3873   -0.8407 
454    0.4103    1.1504    0.9555    0.5329 
455   -1.0400    0.2167   -1.2492   -0.8622 
456  4.946e-02   -0.1286   -1.5123    0.1762 
457    0.7777    1.0821   -0.6486    0.3685 
458    0.7531    2.5096   -0.2269    0.2843 
459   -0.7865    1.0857   -0.3353    0.4117 
460    1.4373    1.6757   -0.1271   -0.4918 
461    1.7783    0.2508    1.3428    1.4854 
462   -2.1964   -0.3922    0.1313   -0.1872 
463    0.6242   -0.2689    0.5223  6.920e-02 
464  6.315e-02    0.2479   -2.6129   -1.1629 
465   -0.4833 -8.793e-02    0.3006 -9.705e-02 
466   -0.2731   -2.1075    1.7806   -2.6083 
467    0.1627    0.1281    1.2542   -0.6064 
468 -3.897e-02   -1.7794   -1.6378   -0.4345 
469   -3.1678   -0.8588   -1.3949   -0.3170 
470    1.6625    0.3233    0.5458   -0.1456 
471    0.3563    0.1581   -0.7522    0.3286 
472   -0.2461    0.2337    1.1443   -0.2675 
473   -0.6417    0.4170  2.816e-02    1.8988 
474  4.702e-02    1.2728   -1.1090    0.6852 
475   -0.5292    0.1308    1.4368    0.6146 
476    0.2353   -0.4495   -0.2845    1.0808 
477   -1.0572    0.3655   -1.1117    1.8121 
478   -0.3238   -0.3053    0.3883    0.6230 
479   -0.2350    0.4936   -2.4668    1.4066 
480    1.3158   -1.5169   -0.5604    0.8183 
481    0.6335    1.8273   -0.9085   -0.5454 
482    1.1218    1.7114   -0.6153    2.3149 
483   -0.8546    0.6201   -0.4981    0.3179 
484    0.7626    0.9263    0.7594    0.8266 
485   -1.2763   -1.1011   -0.1297   -1.6306 
486    0.7280   -1.1683   -0.6448   -0.7771 
487   -1.3710    0.8712   -0.4825   -1.0816 
488   -0.5431   -0.6618   -1.2686    1.1784 
489   -0.1733   -0.1623   -0.5678   -0.8968 
490    0.1599    1.1607   -1.2670    1.4256 
491    1.0188 -9.266e-02   -0.4445    0.4943 
492   -2.1937   -0.2768    0.1820    0.2955 
493    1.0656    1.8932   -1.1883    0.1530 
494 -9.638e-02    0.2565    2.0942    1.8197 
495   -0.2575    0.6624    1.1325    0.5598 
496   -1.8179   -0.7799 -7.079e-02   -0.9529 
497   -0.7877   -1.3185    2.0079   -0.8205 
498    0.7149   -0.6963  9.675e-03    0.2582 
499   -0.6602   -0.3171    0.7740    1.8294 
500   -0.4022   -0.2268   -0.2558   -0.9074 
501    0.6328   -0.6358   -0.3905    0.3568 
502   -0.1180    0.8736   -1.6655    1.7358 
503   -0.9106    1.2861   -0.1755    0.7062 
504    1.2878    1.7327    1.2510    0.6104 
505   -1.8953  7.110e-03    0.4869 -3.875e-02 
506  5.665e-02   -0.7007   -0.8697   -0.5198 
507   -2.2690   -0.8839    0.6337   -0.3108 
508   -1.6703   -0.4800    1.6541   -1.4428 
509   -1.7414   -0.3929   -0.2202    1.0074 
510   -1.0068  6.394e-02   -2.2192    1.1592 
511    0.5441    0.1097   -0.9905    0.2865 
512    1.1160   -0.7663    2.5307   -0.3911 
513    0.6196   -0.2801    0.9707   -0.5939 
514   -0.3873   -1.2161    0.5868    0.3050 
515    0.6916   -0.4621    0.8216   -0.8369 
516    1.5051   -0.2494   -0.6793    1.0539 
517   -1.2943   -0.2029  7.683e-02    0.4334 
518    0.5141    0.3033   -1.4504    0.2237 
519    0.8272    2.3658    0.8171    1.4642 
520 -4.413e-02    1.8070   -1.8857   -0.5270 
521    1.1527 -4.134e-02   -1.7644    0.6116 
522   -0.9158   -1.0527   -0.5449    0.2776 
523    1.7321   -0.5996    1.3844   -0.9284 
524  5.928e-02  4.482e-02 -9.163e-02    1.2027 
525    0.8408   -0.9294   -0.4257 -8.009e-02 
526    0.1819  4.903e-02    0.9509   -0.4734 
527    1.0055   -0.7116    0.6377    0.7947 
528    0.3163    0.6643   -0.3156    1.6653 
529    0.2065    1.9649    0.1926  8.579e-02 
530    0.7384   -0.4924   -0.8205  7.215e-02 
531   -0.5567    1.9867   -0.8354   -0.7131 
532   -0.9426  8.288e-02    0.4735    0.3076 
533    1.5915  1.064e-02    0.9554   -1.4942 
534    0.9276    0.1589   -0.1685    0.4894 
535   -1.0810    1.3111    0.3819   -0.3438 
536    0.8981    0.1195 -6.236e-02    0.7045 
537    2.3328   -0.6570   -1.1877   -0.3136 
538    0.5648    0.8488    2.7990   -1.7426 
539   -1.5603    0.2518   -0.9960   -1.2707 
540   -0.1828    0.5015   -0.7540 -4.400e-02 
541    1.6797 -1.216e-02    2.0934    0.2621 
542   -1.9063   -1.0468   -0.5204   -1.3249 
543   -1.0808    0.2123   -1.1347   -1.5224 
544  9.350e-03    0.7053    2.5071   -0.2929 
545    1.7147    0.9929   -1.9901   -0.3112 
546    0.2014   -1.3163    0.2067    1.5382 
547  5.262e-02  8.281e-02   -0.3966   -0.8374 
548   -1.0449   -0.6861   -0.2601    0.6418 
549    0.8215   -0.4658   -0.3939   -0.2294 
550    0.6875    1.2007    0.9174   -1.2248 
551  8.969e-02    1.5750    0.1399   -0.9155 
552    2.0193   -0.3527   -0.8760    2.2815 
553    1.7692    0.3518    0.5871    1.4835 
554    1.1939   -0.5026    1.6074    0.6055 
555   -2.1861  1.942e-02   -0.1739    0.5185 
556   -0.8477    2.1197    0.7652   -2.0560 
557   -0.9522    0.6748   -0.2774    2.1232 
558   -0.5187   -0.8643    0.6170    1.3040 
559   -0.5353   -0.9583   -0.7179  1.660e-02 
560    0.9909  5.985e-02    0.6068    1.5558 
561   -0.2097    2.0142    1.5484    0.3151 
562    1.1989    1.6353   -0.8231    0.3915 
563   -0.7186   -1.4080   -1.6605    0.1643 
564    0.6313  7.157e-02   -0.1722   -0.3830 
565   -0.4954   -0.4001   -0.2720   -0.4170 
566    1.0692   -2.1160   -1.1643    0.9170 
567   -1.7360    0.2912   -0.4021   -0.1072 
568   -0.9017   -1.0777   -0.1708 -7.252e-02 
569    0.9415   -1.7047    0.9103   -1.0064 
570   -0.1822   -0.4048   -1.4151    2.0748 
571   -1.1210    1.6332   -2.4556    1.9015 
572   -0.2558    0.1417    0.3868    1.1264 
573    1.4051    0.2815   -1.3430   -0.5586 
574   -0.2619    0.2819   -0.7992    0.3643 
575   -0.2766    0.5825   -0.3520    0.2045 
576    1.4492   -1.5851    0.6328   -1.7192 
577 -2.053e-02    0.3276   -0.8813   -0.1401 
578   -0.4861   -0.4674   -1.3491    0.3754 
579   -0.9551    0.9698    0.5440   -0.1153 
580    1.4446   -0.6029   -1.2809    0.2535 
581   -1.1295    0.3799   -0.1051 -9.521e-02 
582    1.6599    0.2170   -0.3661   -0.8627 
583   -0.9376    0.1959    2.8111    0.2007 
584    1.3999    1.9197    0.8750   -0.1522 
585    0.5530   -0.3412  5.673e-02   -0.5057 
586    1.4271    1.9889   -1.7077    0.1536 
587   -2.0324    1.1308    1.0150    0.3076 
588   -2.7281    0.8889 -3.080e-02    1.4724 
589 -1.164e-02   -1.4776   -0.5607   -1.2727 
590   -1.3476    0.3777    1.7454   -0.6318 
591    0.3327    0.5950    0.7160   -0.8877 
592    0.7955   -0.5415    0.2672    1.0757 
593    0.4322    1.0660   -0.3909   -0.1400 
594   -1.4191    0.1654    0.2744   -0.8692 
595    1.1757    0.7015    0.6783   -0.3545 
596   -0.3001   -0.2212   -1.1606    0.5012 
597   -0.2724   -0.7185   -0.1487    1.5260 
598    0.5428    0.5819   -0.7966   -1.7802 
599    2.3301   -2.5153    0.5546  6.589e-02 
600    0.3687   -0.2058   -0.4128  4.078e-02 
601 -7.766e-02   -0.4538   -1.0468    0.2671 
602   -0.3613    0.9943   -2.1331   -0.7557 
603    1.7584   -1.1728    1.5478    0.8773 
604    0.1257 -5.693e-04    2.2649    2.1967 
605   -0.3618   -1.4194    1.7217    0.4923 
606 -4.497e-03   -0.2597    1.0985  2.507e-02 
607   -1.4782    0.3009   -2.2445    0.8247 
608   -1.2268   -0.7853   -1.1556  7.236e-02 
609   -2.5257    0.6462   -2.1807   -1.1563 
610   -0.3317   -0.2356   -0.7005   -0.2751 
611    1.3500    0.8612    0.5605    0.1003 
612  1.212e-02   -1.4892   -0.8773   -1.1250 
613   -0.7784   -1.6940   -0.2674   -2.7383 
614    0.5109    1.3341   -0.1906    0.1758 
615    0.7146    0.4092   -0.3492   -0.2340 
616   -0.5570    0.5412    0.7050   -1.2790 
617    0.2606    0.1168    0.2357   -0.6585 
618    0.4365    1.3539   -0.9529    0.8547 
619   -0.9628   -1.3094    1.3594    0.6253 
620   -0.2071    1.8223    1.3332   -0.2706 
621   -1.5787    1.8341   -1.5445    1.0529 
622    1.4930   -1.8247  2.749e-02    0.5760 
623    0.1625    0.8245   -0.2265    1.5212 
624    0.3221   -0.9286    1.5329   -0.6088 
625    0.3879   -0.2459   -1.4086    2.0382 
626   -0.3983   -1.1997    0.2312   -0.3625 
627 -9.697e-03   -1.7329   -1.0374   -0.5003 
628   -0.7404    1.9675   -0.7861   -0.2715 
629   -0.3274    1.0359   -1.7233    0.6008 
630   -0.3972    0.4322   -0.6760    0.3127 
631  4.060e-02    1.2238    0.4566 -5.592e-02 
632    0.8976   -0.6486   -0.4415    0.6820 
633    0.4249    0.2918   -0.5026   -0.8526 
634 -5.582e-02   -0.9465   -1.5560   -1.5815 
635   -0.6968   -0.2449   -1.3076   -0.7308 
636 -8.516e-02    0.8918   -0.3043   -0.5030 
637    1.7501    1.3172   -0.9726   -1.1740 
638   -0.6557    1.7659    1.4171    1.8808 
639   -0.8491    0.4606    0.4917   -0.5224 
640   -0.9883    0.5045   -0.4557    0.2817 
641 -8.801e-02   -1.0789   -0.8553 -1.843e-02 
642    1.5807    0.4931    1.5178   -0.5002 
643   -1.6732    1.2996    0.4941  7.311e-02 
644    0.9218   -0.1892  7.567e-02   -0.5529 
645   -0.2965   -0.4266   -0.5019   -0.9178 
646   -1.7662   -0.6913   -0.5605   -0.5065 
647    0.4176    1.0213   -0.5842    1.1814 
648   -1.4217    0.8714   -0.2644    0.9357 
649   -0.1607   -0.3996   -1.4002    1.2144 
650   -0.4962   -0.3504   -1.0014    0.1410 
651   -1.9531    0.7599   -0.4294    0.5007 
652   -0.5422   -0.8520    0.8033    0.6162 
653   -1.4993    0.3823    0.5211 -3.280e-02 
654   -1.8110   -1.0374   -0.6308    0.9873 
655   -0.1611   -1.2320   -0.6312    0.5136 
656    0.3077    1.5969   -0.3832    1.9871 
657   -1.6401    1.3163    0.5467   -0.6498 
658    0.8231   -0.6110    0.1636    0.8386 
659    0.4984    0.9563   -0.1943  8.078e-03 
660    1.3697    1.9993   -0.6442   -0.6497 
661   -0.3559    0.1883   -1.2161   -0.4268 
662    0.2779    0.3665    1.2466   -0.2827 
663    2.1616   -1.1896    1.8000   -0.3064 
664   -0.7025   -0.4077    1.6537    0.2377 
665   -1.2234  7.595e-02    1.3741   -0.4147 
666  1.972e-02   -1.1596    0.8533    1.0192 
667   -1.2018 -2.945e-02    0.8092 -1.051e-02 
668   -0.3347   -2.2336 -7.790e-02    0.3009 
669   -1.0867    0.8801   -1.2681   -2.3283 
670    0.5359    1.2545    0.7790    1.8074 
671   -0.6407   -0.4864   -0.5498   -1.2496 
672   -1.0179   -0.7446    0.3857    1.4227 
673   -0.2370   -0.2889   -0.5942 -1.249e-02 
674 -8.053e-02   -1.6412   -1.0303   -0.3193 
675   -1.3423  8.244e-02    1.3847  8.881e-02 
676   -1.7522   -0.8556   -1.0483    0.9803 
677    0.6698   -0.9297    0.4876    1.2760 
678 -1.105e-02   -0.9074   -0.1569    0.3697 
679   -0.7247   -1.5225   -0.3913   -0.4969 
680   -2.4268   -1.1398   -0.1386   -1.1247 
681    0.6209   -0.2128   -0.7451    0.4397 
682   -1.2020    0.6065    0.8391   -1.1058 
683   -0.5040  7.039e-02    2.0118   -0.6173 
684   -0.6031   -0.7095   -0.1009   -0.5588 
685   -0.2604    1.5253   -1.1782   -0.1036 
686   -2.3856   -0.6594   -0.8563    0.6301 
687  7.786e-02    0.4402    0.7128   -1.2430 
688    0.6836    0.3055   -1.4129   -0.7661 
689 -8.409e-02    1.4648 -8.233e-02   -0.8342 
690   -0.5321    1.3552   -0.2616    1.0973 
691    0.8581   -1.1156   -1.3941   -0.2083 
692    1.2886    0.3959   -1.5629    0.2087 
693   -0.5754   -0.4339    0.4056   -0.3797 
694    0.7916    1.1201    0.4045   -0.2144 
695    0.1716   -1.2649   -0.7745   -1.9877 
696    1.2485   -1.4306   -1.2941   -0.9281 
697   -1.0394   -1.0754    0.3313   -0.2024 
698    1.8415    0.5218    1.4614    0.7082 
699   -0.8529    0.7664   -0.6021   -0.9935 
700   -0.4757    0.4381    0.1958   -0.2553 
701   -1.6500    0.2622 -5.419e-02   -0.5299 
702    1.9204   -0.2252    0.9231   -0.5345 
703    0.9135    0.1459    1.2951    1.2622 
704  6.111e-02   -1.2872 -4.443e-03   -1.4017 
705    0.7500    0.1662  9.525e-02   -0.8601 
706   -1.6096   -1.4946   -0.7860    0.2016 
707   -0.1318   -0.1547   -1.0309   -1.3978 
708    0.3630   -0.1101   -0.1738    0.4315 
709   -0.2705   -1.8139   -1.0968   -0.1636 
710   -0.2090    0.9015   -0.3696    0.3596 
711   -1.3011   -0.9365    0.8518   -1.5565 
712    0.9121    0.4916    1.7926   -0.6281 
713    0.5773   -0.2262  8.519e-02    1.1610 
714   -0.6692  6.671e-02    0.2934    0.4999 
715   -0.8679   -0.1310   -0.9271   -0.1792 
716    0.7448   -0.5492   -1.6578    0.6191 
717    1.1731    0.8759   -0.7810   -0.6908 
718    0.3570   -0.8056    0.4175   -1.0117 
719    2.0392  3.995e-02   -1.1837   -0.9500 
720    1.2889   -0.3166    1.4940    0.5996 
721  8.701e-02   -0.2716    0.4665   -0.5706 
722    0.5207    1.4564    0.5272    0.4587 
723    1.1503    0.2609   -1.9782    0.4368 
724   -0.3756  9.388e-02    1.3009   -0.2393 
725   -0.5133    0.5310   -1.3437   -0.4166 
726    0.7508    1.8511    0.5157    0.2535 
727    0.7771    0.4033   -0.8555   -0.5332 
728   -0.6932    0.9479    2.5093   -0.4282 
729   -1.9599    0.3449    1.0157    0.4366 
730    0.7423    0.6903   -2.5261   -0.5351 
731   -0.8433   -2.3196    0.1179    0.1623 
732    1.8750    0.1556    1.7182   -1.8503 
733   -0.9736    1.2698    1.2778    0.3862 
734    0.9839   -1.1217    0.5563    0.3375 
735    0.4855    1.8962    0.6395   -1.2067 
736   -1.9048    0.4679   -0.3799    0.2899 
737   -0.4847  9.309e-02    1.7944    0.9971 
738 -5.815e-02 -8.526e-02   -1.1834    1.3122 
739    0.4395   -0.2467   -0.7993   -0.5972 
740   -1.3912    2.0002   -0.2697    1.9788 
741   -1.4529 -8.874e-02   -0.7872    0.9990 
742    1.4837   -0.3346   -0.4119    0.3185 
743    1.5230    1.8889   -0.7342   -0.4214 
744   -1.1763    0.2173   -0.3717   -1.3139 
745    1.0817    0.8337    1.9794    1.0915 
746   -0.9374    0.4803    0.5072    0.3860 
747   -0.7902    1.2572   -1.4299   -0.8144 
748  5.753e-02    0.9383    0.6938   -0.9849 
749   -0.9833   -0.6166    1.8734    1.7229 
750   -0.7724    1.4475    0.6378   -0.2787 
751   -0.8050    0.7866    0.8665    0.6395 
752    0.2052    0.6951   -0.4291  3.475e-02 
753    0.2667    2.0800   -0.6982    2.8534 
754    0.2397   -0.4620   -0.8868   -1.9638 
755   -0.9749   -0.2424    0.3939    0.2670 
756    0.1802    0.2202    1.0738    0.1752 
757    0.9852   -0.3532    0.2351    0.3804 
758    0.8573   -0.6956    0.4523   -1.9958 
759    0.1995   -1.1322   -2.3632   -0.3312 
760    1.2222 -7.527e-02   -0.6972   -0.2859 
761    0.5362   -0.5389   -0.1399    0.9630 
762   -0.2596    1.5205   -0.3479    0.2934 
763   -1.3418   -0.8795   -0.6680   -1.2118 
764    1.3471   -1.1073   -1.3274    0.8958 
765   -0.2121   -1.1481  1.103e-02 -4.094e-02 
766    0.9544   -0.8653    0.7843   -0.4709 
767    0.4208    1.0954   -0.9593    0.9981 
768   -0.6262   -0.4731    1.0234    0.5468 
769    0.1026 -4.102e-02   -0.6612    0.6504 
770    0.6340    1.2224    1.2415   -1.1881 
771   -0.6588   -0.6482    0.3351    0.8545 
772   -2.5677   -2.1106    2.4740   -0.7568 
773 -3.628e-03    0.5337   -0.4038   -0.9130 
774   -0.1445   -1.1719   -0.2663 -7.344e-02 
775    1.2228 -6.158e-02   -0.3742    0.7557 
776    0.8276   -0.8998   -0.1229    0.8254 
777    1.8793    2.8666   -0.5320   -1.0962 
778    0.1701   -1.1288    0.2144    1.6511 
779    0.5455    0.2135   -1.6476   -0.2436 
780    0.4814    0.5305   -0.8649   -1.8462 
781   -1.1058  2.137e-02    0.2596    0.7651 
782   -0.1523   -1.1623    0.3240    3.1047 
783    1.9315   -1.3217   -1.2272    0.8501 
784   -0.6846   -0.8144   -0.2182    0.1723 
785    2.1524    1.0224   -0.9114   -1.0727 
786    0.4368    0.3769   -1.4337   -1.5923 
787   -0.6716   -0.3243   -1.5719    0.5279 
788    2.2563    0.3448   -1.1702    0.2488 
789   -1.2588    0.9792    0.1538   -1.5225 
790    0.5939   -0.6277    0.4537   -1.1703 
791   -2.1770    1.1224   -0.1361    0.5065 
792    0.6693   -0.7174    1.5522    0.6615 
793   -0.6509    0.8081    0.2977    0.4087 
794    0.2954    1.4723   -2.1836    0.5236 
795    0.9226    0.9859    0.2905   -0.3186 
796    0.1017   -0.6173   -1.4657    0.8058 
797    1.2441    1.1011    0.4283    0.8569 
798    1.3510    0.4363 -6.002e-02   -2.2126 
799    0.9986    0.9673    0.8080  1.469e-02 
800    0.7091  4.524e-02    1.2692    0.6936 
801   -0.6584    0.7874    1.3550    1.7603 
802   -0.9295    2.0371   -1.5366   -0.3226 
803   -2.0264   -0.7850   -0.3455    0.6185 
804   -1.9981   -0.1989  4.725e-02    1.4076 
805   -0.9159    0.1993    0.7116    0.1702 
806    0.5221    0.4029   -0.9063    0.4563 
807 -4.302e-02    0.1460    1.1258    1.0099 
808    2.2623    0.3379    0.3965   -0.3479 
809    1.1005    0.9522   -0.3756   -0.6421 
810    1.0703    0.5277   -0.6441   -1.2390 
811    0.9063    2.1504   -0.9309   -1.3672 
812  2.571e-02    0.2438    0.7883    1.1958 
813    1.3132   -0.2481    0.9323   -0.8423 
814    0.9935   -0.2459   -1.1573   -0.3954 
815    1.3888   -0.7274    0.6042    0.2634 
816   -1.0139    1.3971   -0.9605   -0.5591 
817    0.6406    0.3552   -0.6389    1.3710 
818    0.2334    0.6248    0.1735    0.8082 
819    0.4577  4.410e-03   -0.6581    0.7298 
820    0.6112   -1.0746   -0.1657   -0.2984 
821   -0.6599    0.1556   -1.3243   -0.6922 
822    0.9840    0.7476   -0.8739    0.4587 
823 -9.046e-02    2.7925   -0.4036    0.8738 
824    0.9037    1.2725    1.0188   -0.4621 
825    0.8631    0.7690    0.6380   -0.8486 
826    0.7651   -1.8417    0.3704   -0.4805 
827    0.3302    0.1315   -0.1228    2.9590 
828  5.581e-02   -0.3296   -2.0685   -0.2924 
829   -1.2057 -4.334e-02    0.6781    1.0712 
830    0.5498   -0.5550    0.9352   -1.1549 
831 -8.981e-02    0.2941    0.1857   -0.2670 
832    0.2823   -0.1443    1.2209    0.6146 
833    0.3355   -0.8635   -0.2872    0.8797 
834   -0.9921    0.7407   -1.0602    0.3574 
835   -1.7456  1.094e-03    0.1687   -1.1708 
836   -1.5823   -1.8407   -1.7725   -0.7972 
837    0.9635    0.6159    0.1648   -2.0481 
838   -0.2095   -0.1922   -1.7883   -0.6484 
839   -1.0932    1.0780   -0.3515   -1.5346 
840    0.3219    0.5030   -1.0645    1.5205 
841    0.2388   -0.6186  6.227e-02    0.1282 
842   -0.5705   -0.3252   -1.1058   -1.3855 
843   -1.4068   -1.7835    0.7691    1.3464 
844    0.1971    0.6526   -0.7423    1.2511 
845   -0.3688   -0.5258   -1.1812   -1.3600 
846    0.9619    0.3574   -1.0528    1.6213 
847    0.6370   -0.9380   -0.1285    0.1383 
848    0.8248    2.0247    0.4766    0.7136 
849   -1.5235    0.9945    0.4335    0.9351 
850 -3.459e-02    0.6652   -0.2746   -0.1308 
851   -0.9736    0.6262 -1.164e-02    1.9000 
852    0.6388   -0.6258    0.1714    0.4726 
853   -1.5510   -0.6333    0.1273    2.1451 
854   -0.4700    1.2193   -0.9611    0.3059 
855   -0.2311 -3.518e-02   -1.9621    1.8995 
856 -3.839e-02   -0.6932    0.3205    0.7003 
857   -1.9296    0.9229   -0.4931    1.3621 
858    0.4367   -1.9011    0.4385    0.8081 
859    1.1788    1.1632   -0.6948   -0.1693 
860    0.8374    0.7316    0.2312    1.1108 
861    1.0318   -1.3378    1.6296    0.2364 
862   -0.4903 -1.859e-02   -1.8969   -1.5229 
863   -0.3726   -0.6978   -1.5309    2.0150 
864    0.5066    0.5939    1.4518   -0.3582 
865    1.1072   -0.4261   -0.5775   -0.9416 
866   -0.4598   -0.2620   -0.7655    1.4131 
867   -1.1141   -0.5241   -0.1859   -0.1152 
868   -0.7005   -0.1961    1.3310   -0.5295 
869   -0.3992   -1.0739    0.8121   -1.1386 
870 -7.589e-02    0.2590   -1.7288 -9.322e-02 
871   -0.7309   -1.8447   -0.6101   -1.8583 
872  7.488e-02    1.1697   -1.0641    1.4012 
873   -0.7330  4.407e-02   -0.8849    0.2491 
874  8.408e-02    0.7875   -1.0226    1.8560 
875    0.1278   -0.8887   -1.8754   -0.6568 
876    0.2239    2.2805   -1.9257   -0.7199 
877   -0.6891   -1.0864   -1.2826    0.1048 
878   -0.5942    0.4475   -0.4435    0.3327 
879    1.1787   -0.3077    1.2305    1.8759 
880    1.1544    1.0067   -0.2158    1.0675 
881   -0.8082   -0.2136    0.6443   -0.2265 
882    1.6169    0.1098   -0.2748    0.2045 
883   -0.2571   -1.4663    0.3318    0.4480 
884   -0.1030   -0.6808    1.0813   -0.1643 
885   -0.9905    0.3623   -0.8998   -0.5665 
886   -0.9129    0.3729   -1.2115    0.3609 
887    0.7867    0.1408    0.8489    0.2181 
888   -0.2112    1.1576   -1.0532 -8.708e-02 
889   -0.7567    0.2842    1.8879    0.2653 
890    1.4438   -0.3119   -0.3866    0.2653 
891 -8.187e-03 -2.200e-02   -0.6146 -8.219e-02 
892   -0.9659   -0.2090  7.843e-02    0.2679 
893  3.228e-02    0.8718   -1.0237    1.5345 
894    0.3494    0.7520   -1.4711   -0.4735 
895    1.2846  4.451e-02    0.3695   -1.6499 
896   -0.1561    0.2186   -1.0167   -1.1620 
897   -0.2862  1.362e-02    0.3176    0.3206 
898   -0.3326   -1.2359    0.1822   -0.5068 
899    1.4421   -1.8539   -1.5143    1.1694 
900   -0.2726    1.4247   -0.3883    0.3591 
901   -0.4938    2.0581    0.1827  6.753e-02 
902    0.3597   -0.5639   -0.9567   -0.5807 
903    0.6346   -0.5428    1.4018   -0.6015 
904   -1.4790    1.3423   -0.6608    1.5667 
905   -0.7668   -0.2681   -0.6633    0.2436 
906    1.5288   -1.3244    1.5255 -4.519e-02 
907  2.572e-02    0.5805    0.2872   -0.9967 
908    0.5820   -1.0017   -1.4745   -0.6846 
909    1.1852    1.1146    1.4876    0.2211 
910    0.3160   -0.4659    0.4546  1.719e-02 
911    0.8898   -0.1559   -0.5502    0.2773 
912    1.1724   -1.1969  9.368e-02   -1.2062 
913    1.9711    0.7548    0.7648    0.7431 
914    0.3424   -0.3838   -0.8396   -1.9363 
915   -0.3709    2.2870    0.1064   -1.4765 
916   -1.3814   -1.2649    0.9172    1.2086 
917    1.1579   -0.3192    0.8875   -0.6915 
918    0.8585    0.9303   -0.6354    0.2920 
919    1.2270   -0.2919  9.211e-02   -0.1065 
920    2.5489   -0.4642    0.9882 -6.245e-02 
921    1.7877  3.211e-02    0.1290   -1.0590 
922   -2.2101    0.5828    1.8433    0.8129 
923    1.4794    0.5249    0.8380    0.2029 
924   -0.2115    1.4806   -0.5529   -1.0151 
925   -1.1884   -0.3964    1.3901    1.1923 
926   -0.3947   -0.3708   -0.2409   -0.4623 
927    0.2688    0.8491    1.1420    0.4602 
928   -1.0023   -0.5641   -1.1221   -1.6411 
929    0.3313    0.8260   -0.8400   -0.3073 
930   -0.1247    0.2651   -0.3510    0.9171 
931 -6.516e-02    1.3728  1.381e-03   -0.6487 
932   -1.8444    2.1106   -1.4291    3.4767 
933   -1.1701    0.7146   -0.3817   -0.8533 
934    1.5179    2.0880 -4.749e-02    0.7789 
935   -0.2556   -0.5621    0.2899    1.2188 
936   -0.2757 -6.418e-02    1.0133    0.2648 
937   -0.5382   -1.9897    0.7148 -3.897e-02 
938   -0.7423   -1.1433    2.3069   -0.5902 
939    0.5847   -0.2156   -0.1276   -1.4015 
940    0.1188    0.6237   -0.5521   -0.2074 
941   -0.3612   -0.9152    0.8735    0.4188 
942    0.3131    0.5345   -0.5887    0.7041 
943    1.0583   -2.3988   -0.3287   -1.7527 
944   -0.9283    0.3609   -0.3770   -0.1005 
945    0.7214   -1.6738    1.2840    1.3881 
946   -0.2048    0.6759    1.7531    0.4301 
947   -0.7950   -0.9484    0.3590    0.4051 
948   -0.3470    0.3247    0.8317  6.381e-02 
949    0.2095   -0.1693    0.1830    0.6669 
950   -1.7457   -1.2520    0.9139    1.0047 
951    1.0848   -1.1327   -0.6213    1.0249 
952   -0.4528   -0.1308   -1.1604   -1.2598 
953   -0.6421   -0.2198   -0.7827   -1.8894 
954    0.7303    0.5023   -1.4815   -1.0133 
955    0.5539   -0.6719   -0.3750   -1.2683 
956   -1.8946    1.3300    0.5520   -1.0733 
957    0.7918    1.2455 -8.718e-02   -0.2767 
958   -0.4130   -0.9770    0.5416   -1.0198 
959   -0.8254   -1.2108    1.1145    1.8533 
960    1.6447    1.0698   -0.6176   -0.3933 
961   -0.3368  4.932e-02    1.6126   -1.8595 
962   -1.3558    0.4593   -0.2354   -1.3028 
963   -0.1384    1.0793    0.4391   -1.7855 
964    2.1782    0.9419   -2.7076   -0.5843 
965    0.3065    0.9109   -0.9937    0.1480 
966 -9.747e-02   -0.2251   -0.2707   -0.6430 
967 -2.125e-03   -0.6376    0.8331   -2.0732 
968   -0.8296   -0.5075  1.875e-02   -1.5754 
969    1.6148    1.0249    0.1223    1.3071 
970    1.1278    1.0849    1.9647   -1.5156 
971   -0.6685  3.947e-02 -2.481e-02 -8.913e-02 
972  6.684e-02    1.0157   -0.3194   -0.8868 
973   -0.3861    0.1615  1.547e-03    1.4480 
974    0.2113    1.1701   -1.3013   -0.7142 
975    0.1829   -1.4770   -0.6508    0.8506 
976    0.5334    1.3330    0.7119    0.6213 
977   -0.8465    0.4326    1.9916    1.4443 
978   -1.2884    2.1086   -1.2250   -2.7175 
979    0.8921    0.1380   -0.2254 -2.338e-03 
980    2.1649    0.5804    0.5433    0.9650 
981    0.3816    0.5305    0.6034    2.0748 
982    1.0856  8.766e-02   -0.6872   -1.2847 
983    0.5317   -0.6684    1.2606   -0.3868 
984    0.8634   -0.8294    1.2565   -0.1781 
985   -0.3949    1.2268    0.3892    0.6361 
986 -1.412e-02   -1.6025    0.7335   -0.5378 
987    0.1107   -0.1226   -1.9188   -0.8800 
988   -0.1388    0.2189    0.7244    1.8568 
989    0.9597   -0.4491    0.7149   -1.2819 
990    0.8319   -1.1465    0.4667   -1.7721 
991   -0.4270  8.896e-02    0.7027    0.3664 
992   -1.0386   -0.9320   -0.4193    0.9063 
993    0.2960    1.7351   -0.2274   -1.1219 
994    0.4441   -0.9720    2.1221    1.0478 
995    1.0864    0.4313  3.735e-02    1.4020 
996  7.154e-02   -0.1650    2.8233   -0.9142 
997   -0.4515   -1.4277    1.7559   -0.2662 
998    1.0935    0.3477   -2.6945   -0.8815 
999   -0.9667    0.1548   -0.6122   -1.1183 
1000   -1.1507    0.1903    0.2000   -0.3067 
