$DATA1 SOURCE='HSPICE' VERSION='Q-2020.03-SP2-2 linux64'
$OPTION MEASFORM=1
$ This file format is subject to change 
$ The seperator is :@:                  
$index=1 is a nominal sample in Monte Carlo.
$option ignore_global_variation = no              
$option ignore_local_variation = no               
$option ignore_interconnect_variation = no        
$option ignore_spatial_variation = no   
$option ignore_variation = no 
$option sampling_method  = srs                  
$option normal_limit     =      20.0000       
$option replicates       =   1      
$option random_generator = MCG                          
$option seed             =   65729  
$option stream           =   1      
$option output_sigma_value =  1     
$option use_agauss_format = yes     
$option screening_method = pearson  
$Global Variable number:        0                               
$Local Variable number:        2                                
.TITLE '.title bl and blb voltage variation'
index vddbl:@:noise_bl:@:ILNC vddblb:@:noise_blb:@:ILNC
1    0.    0. 
2   -1.5983   -1.1287 
3   -1.7886   -0.1360 
4   -0.6098    0.9492 
5    1.4749   -0.2199 
6   -0.2236   -1.1101 
7    0.7641    1.1080 
8   -2.5609    1.0051 
9    1.4351    0.6247 
10   -0.8096    0.9236 
11    0.4436   -1.2606 
12   -0.7701    0.6381 
13   -2.1969   -2.0081 
14 -5.796e-02   -1.7874 
15    2.7476    0.1376 
16    1.7054   -1.2656 
17    0.2460    1.4324 
18   -0.4032   -1.4804 
19 -2.733e-02    1.2888 
20   -0.8683   -0.8261 
21    0.7762    1.2526 
22    0.2777    0.7209 
23    0.3920    0.2511 
24   -0.1847 -7.522e-02 
25    0.4504    0.5385 
26   -1.4770   -0.5453 
27   -1.5314    1.8938 
28    1.0893   -1.1083 
29    0.6524    0.5211 
30   -0.4685   -1.6846 
31    0.9320   -0.7269 
32   -0.3679   -0.2749 
33    0.8528   -1.0578 
34    1.4128    0.6058 
35    1.1436    0.3794 
36    1.5248   -1.4648 
37  3.407e-02 -4.398e-02 
38 -4.951e-03    0.7928 
39    0.4176    0.5352 
40   -0.7273  3.622e-02 
41    0.7778    0.1334 
42    0.1968    0.8756 
43   -1.0666   -0.9333 
44    0.4161    1.2231 
45    0.4267   -0.1086 
46   -0.2181    0.2320 
47   -0.7219   -1.3127 
48   -1.0856    0.4584 
49    0.9551    0.7298 
50    0.6211    1.0260 
51   -0.3552   -0.9369 
52    1.2104   -2.2498 
53    2.0684    0.2543 
54   -1.2534    1.0474 
55    0.6036    0.4763 
56    2.5525    0.6489 
57    0.3413   -0.4195 
58    0.3761    0.8393 
59   -1.0949    0.9141 
60   -0.2609 -3.171e-02 
61    1.4308   -0.2689 
62    1.6138    1.0901 
63    1.4587    0.3121 
64 -2.788e-02   -1.0129 
65    0.2835    0.9392 
66    0.8532    0.4206 
67    0.2892    0.1662 
68   -0.6838    0.9705 
69   -2.1456   -1.1547 
70    0.1132   -1.0926 
71    0.6838   -0.6598 
72   -0.1222    1.5597 
73   -1.0086   -0.2082 
74    1.5496   -1.1215 
75   -1.3125    0.9492 
76    1.4459   -1.0800 
77    1.8454 -5.527e-02 
78   -2.5769   -0.9996 
79   -1.7557 -6.228e-02 
80    0.8333    0.1887 
81   -1.2045   -1.1166 
82   -1.0770    0.4325 
83    0.4909   -0.7161 
84   -0.6287   -0.5003 
85    1.0085    0.2470 
86   -1.8054   -0.7118 
87   -0.8551   -0.3137 
88  6.246e-02    1.0077 
89    0.2910   -0.7723 
90    0.3398   -1.2809 
91    0.7076    1.6400 
92   -1.0470    0.5395 
93   -0.6304   -0.3723 
94   -0.4740   -1.3040 
95   -0.2936    1.0050 
96    0.3733   -0.5310 
97 -8.620e-02    0.6048 
98   -0.3386   -0.9845 
99    0.5430   -1.6232 
100   -0.6854    0.5425 
101    0.3572   -0.3377 
102   -1.6987   -1.9529 
103    0.7953    1.1044 
104   -0.3139   -0.2123 
105    0.5655    0.9008 
106  1.169e-02   -1.0295 
107   -1.3675   -0.7094 
108   -0.8263    0.8412 
109    0.5579   -0.8966 
110    0.1541   -0.7895 
111   -0.9113   -1.0945 
112   -0.3402    1.3239 
113    0.3650   -1.0174 
114   -0.1733   -1.8829 
115 -9.467e-02    0.9087 
116    1.3428    1.8027 
117   -0.6833   -1.1003 
118    0.2065    1.2971 
119 -3.462e-02    1.0940 
120   -0.7257    1.1851 
121   -0.1738    0.2293 
122   -2.2538    1.0047 
123   -0.3059    0.2141 
124    0.7838   -2.3943 
125    0.1516    0.1595 
126    0.1081    0.1089 
127   -0.9719    0.9910 
128   -0.7728    0.7450 
129    1.5565   -0.3177 
130   -0.3175   -0.5473 
131    0.7239   -0.6767 
132   -0.6423   -0.1526 
133    0.4325    0.1067 
134   -0.6368   -1.3762 
135   -0.2929    0.1285 
136   -0.4792    1.8436 
137    0.2152   -0.2462 
138    0.3971    0.4524 
139    0.5319    1.4429 
140   -2.1585   -0.8280 
141   -0.5610    0.5545 
142   -0.7967    0.7348 
143    0.2680   -0.1197 
144    0.8807   -1.1525 
145   -1.4751   -0.5039 
146    0.7393   -1.0106 
147    1.5829    0.3640 
148    0.8024   -0.4283 
149    0.2016    0.1061 
150   -0.2366    0.2751 
151    1.1134    0.2874 
152    0.9321    2.1107 
153    0.9369    0.7373 
154  7.391e-02    0.1325 
155    0.6355    1.8468 
156   -1.3596   -1.1250 
157 -4.065e-02   -0.6994 
158   -1.4661    0.8593 
159   -0.3680    0.3482 
160   -1.6716   -0.4326 
161   -0.3815   -1.5041 
162   -1.8656   -0.3682 
163    0.1248    0.2884 
164   -0.1628   -2.7901 
165    0.7372   -0.1795 
166   -1.5679    1.5197 
167   -3.4530   -1.3389 
168    0.2147 -4.766e-02 
169   -0.5110    0.5958 
170    0.3277    0.6707 
171   -2.6362   -0.4805 
172   -0.4941  3.535e-02 
173   -0.1426    1.6946 
174   -0.9411    0.4316 
175    0.5980    0.5947 
176  5.013e-02   -0.9940 
177   -1.3097   -1.1003 
178 -5.048e-02    0.6433 
179    1.6759   -0.2955 
180   -0.3599 -8.353e-02 
181    1.7204  4.268e-02 
182   -0.1801   -1.2291 
183    0.5901   -0.2755 
184    0.1260   -0.3672 
185    1.6507   -1.1333 
186   -1.8650   -0.3195 
187    1.2643   -1.5638 
188   -2.0438   -1.2723 
189    0.7336   -0.9029 
190    0.1162    0.4944 
191  9.026e-02    1.6152 
192    0.9801    1.6347 
193    1.2690    0.8294 
194    0.3132   -0.9891 
195   -1.2695   -0.7998 
196   -0.8147    0.2659 
197   -0.9765    0.2522 
198    1.2746    0.1828 
199   -1.7611   -0.4020 
200   -2.9423   -0.3254 
201    1.1224   -0.4130 
202    0.8178 -9.737e-03 
203    0.4062    2.2848 
204   -0.5633   -1.0665 
205    1.4727   -0.2104 
206 -7.420e-02   -0.6780 
207   -0.2191    0.8961 
208   -1.5719    0.7435 
209   -0.8753   -0.5505 
210    0.6776    1.1652 
211   -0.2771    0.5631 
212   -0.9183    0.2346 
213   -0.3629   -0.1880 
214   -0.3946    1.1081 
215   -1.6223   -0.5286 
216    1.3695   -0.7380 
217   -1.8402   -0.6259 
218    1.5616   -1.0757 
219   -2.0349    0.6193 
220   -1.5071    1.8521 
221   -0.4050    2.1372 
222    0.5033   -0.5929 
223    1.4172   -0.7349 
224   -2.2486    0.6125 
225   -2.1834   -0.5117 
226    0.2206    0.7282 
227   -0.9442    1.3926 
228    0.9289   -0.5070 
229    0.7012    0.1858 
230   -0.9470    0.1516 
231   -0.5832   -0.1811 
232    0.1747   -0.1865 
233   -1.7606    1.6982 
234    0.2802    0.2085 
235    1.2225   -0.7469 
236   -1.8337   -0.1942 
237   -1.0248    0.6406 
238   -0.6164    1.9447 
239    0.9674   -1.7690 
240    1.1880    0.5429 
241    0.2869 -3.532e-02 
242   -0.4201    0.8414 
243   -1.3165   -1.6461 
244   -1.1640  4.341e-02 
245    0.8446   -0.7777 
246   -1.8027    1.2131 
247   -0.4084 -5.347e-02 
248   -1.1569   -0.6727 
249   -0.3985   -2.4280 
250   -2.9477   -0.2483 
251   -1.9447   -1.3752 
252    1.7678   -1.4950 
253  9.184e-02    0.8872 
254   -0.3651   -0.6273 
255   -0.2281    0.9293 
256   -1.2988    2.2519 
257   -1.5036    1.0190 
258   -1.1950   -0.3802 
259   -1.6574   -1.1173 
260   -1.7658    1.0155 
261   -0.2801   -0.2342 
262    1.6020    0.4661 
263    0.5774   -0.3466 
264 -4.642e-02   -0.1833 
265   -2.2888   -0.8411 
266   -0.1720    1.7571 
267   -0.3204 -1.257e-02 
268   -1.0767   -1.0488 
269    1.8107    0.2632 
270    1.3434    0.3808 
271   -0.7726    1.4812 
272   -0.9635   -0.4689 
273    0.8767    2.7728 
274   -0.3631   -1.9460 
275   -0.9489    0.3935 
276   -0.4127  9.730e-02 
277    0.4808    0.2585 
278    1.5808   -0.4389 
279    1.3518   -1.1876 
280   -0.1991   -3.3231 
281    0.2783    1.1053 
282   -0.2374   -1.7929 
283   -0.7073 -2.144e-02 
284    1.7558 -2.024e-02 
285 -3.784e-02   -0.4264 
286    0.9577   -0.7295 
287    0.3343    0.6960 
288    0.6871   -1.5261 
289  9.394e-03   -0.4376 
290   -0.1625    0.9152 
291    1.4171    0.3798 
292   -1.1717   -0.5051 
293   -0.5205   -0.3879 
294   -0.5739    0.3457 
295    1.7553    0.9556 
296    0.1729   -0.7937 
297    0.2112    0.4387 
298   -0.6844  1.399e-02 
299   -0.8650 -7.300e-02 
300   -0.2777    0.2731 
301    0.5639    0.2327 
302    0.8316    1.1381 
303    0.6502  7.936e-02 
304    1.0362   -0.6355 
305   -0.3701   -0.4089 
306   -0.4249    0.1875 
307    1.4867    0.4544 
308   -1.3588  5.209e-02 
309   -0.1872   -1.3830 
310    0.2700 -5.898e-02 
311    1.2150   -0.3749 
312   -0.1773   -0.6989 
313    1.7374    0.1766 
314   -0.1467   -1.4669 
315   -0.8919   -1.9118 
316    0.6332   -0.3649 
317    1.0557   -0.2068 
318    0.1799   -0.1747 
319   -1.0288    1.3166 
320    0.3025  9.658e-02 
321    0.2727   -0.1417 
322    1.1765    0.7275 
323    1.3387   -0.5295 
324   -0.5851   -0.6587 
325    1.8522   -0.9091 
326   -0.6863   -0.1034 
327   -0.5486    0.3544 
328   -0.4816    0.7364 
329    1.5929    1.0707 
330  1.622e-02   -0.9410 
331    2.0121   -0.6237 
332    0.4040    0.6898 
333    0.4577    0.3602 
334   -0.7043   -0.4136 
335    0.1839    0.8383 
336   -1.9431    1.1480 
337  9.470e-02    0.6643 
338    0.2159    1.0259 
339  8.252e-02    0.8442 
340  9.642e-02    0.6508 
341  1.766e-02  4.038e-02 
342   -0.1966    0.5651 
343    1.2750    0.6170 
344    0.3155  4.724e-02 
345    0.1978   -0.4958 
346    0.7507   -0.4357 
347    0.3135    1.1917 
348   -1.5361  2.393e-02 
349   -2.0928   -0.6952 
350 -9.670e-02    0.6399 
351    1.5765   -1.4083 
352   -1.7155   -0.1008 
353    1.6104   -0.3207 
354    1.2168   -0.1597 
355    1.1023    2.5057 
356    0.3869    1.7089 
357   -0.2484    1.1669 
358    0.5491   -0.7520 
359    0.1082    0.1688 
360    0.1737    2.2339 
361   -0.8411    0.2740 
362   -1.0462   -0.5200 
363   -0.3337   -0.1406 
364   -1.0719   -1.2625 
365   -2.4810    0.5759 
366   -0.2425    0.2667 
367   -0.5620    0.7773 
368    0.9307    1.2669 
369    0.5723   -1.6521 
370   -1.3005    0.9010 
371 -4.948e-02   -1.3055 
372    0.5849   -1.0330 
373   -1.4711    0.7461 
374    0.7908   -1.0405 
375    0.3658    0.8940 
376   -1.5636    0.6264 
377   -1.0069   -0.5282 
378 -1.575e-02    0.1274 
379    1.7037   -0.2711 
380   -0.3006   -0.5672 
381    0.8505   -0.1229 
382    0.5765   -0.2321 
383   -0.7110    0.4666 
384    1.1546   -0.8344 
385    0.4506    0.7828 
386   -1.7586   -0.5380 
387   -1.3393    0.8077 
388    1.7415   -0.4745 
389   -1.5318   -0.8556 
390   -1.2554    0.5751 
391    1.1937   -0.9643 
392   -1.4645    0.6025 
393    0.7640    0.5311 
394    1.6103    0.4730 
395    1.4111 -7.932e-02 
396   -1.4709   -2.3386 
397   -0.4877   -0.4091 
398 -9.358e-02    1.7028 
399    0.5733   -0.9390 
400    1.1551   -1.0777 
401    0.2238    0.3428 
402   -2.2006   -1.1143 
403   -1.3306    0.5126 
404    0.4848    0.3633 
405   -0.9284   -0.9800 
406    0.6154 -7.251e-02 
407   -0.1598    0.2363 
408 -4.637e-02   -0.4050 
409   -0.6169   -0.5389 
410   -1.5768    0.1532 
411   -1.0126   -0.4841 
412   -0.2288    1.7814 
413    1.4910    1.5585 
414    0.2051   -0.8012 
415    1.4019    0.1496 
416   -0.2338    0.2295 
417    0.7982    0.3248 
418   -0.6215    0.9855 
419   -1.3457    0.2583 
420    2.1270   -0.9705 
421 -8.294e-03    0.9625 
422   -0.7011    0.3729 
423    0.4154   -0.9376 
424    1.4749    0.7939 
425    0.9088   -0.7740 
426   -0.4675   -1.9260 
427    0.1567   -0.8030 
428    1.8910    1.6071 
429   -3.1436    0.1731 
430   -1.2596   -4.4373 
431   -0.2874    1.1834 
432  3.744e-02    0.5844 
433 -6.251e-02   -1.6359 
434    1.0591    0.8179 
435   -1.5373    1.6773 
436   -1.6362    2.4831 
437    1.0506   -0.7077 
438   -0.8617    0.5189 
439    1.1699   -0.5078 
440    1.6060    0.7209 
441    0.8846    0.5316 
442   -0.7225   -0.8698 
443   -0.5136    1.8327 
444    1.1359  4.050e-02 
445   -0.5314    1.6771 
446    1.3475    0.3351 
447  8.101e-02    0.5270 
448    0.2578    1.3690 
449 -5.646e-02 -7.441e-02 
450   -0.3490   -0.6356 
451 -6.519e-02   -0.8786 
452    1.6277 -1.976e-02 
453    0.9501    0.7332 
454   -0.5386   -1.4506 
455   -0.2101   -1.0725 
456   -0.9991   -0.1904 
457    0.5059   -0.5768 
458    0.5512   -0.1063 
459    0.6895   -1.0958 
460    0.4141   -0.2632 
461 -4.126e-03   -1.4092 
462 -6.241e-03    0.2768 
463    0.4004   -0.7775 
464    0.9235 -2.573e-04 
465    0.7085    1.4431 
466    0.2221    2.0384 
467   -0.6794    0.4457 
468   -1.9617   -1.4240 
469   -1.5217    0.2150 
470   -1.9462   -0.1871 
471    0.6742   -0.5395 
472   -1.5349    0.4197 
473    0.3341    1.1374 
474   -0.8340  1.026e-02 
475    1.2188    1.1236 
476  6.103e-02   -0.4997 
477   -0.9492   -1.5322 
478    0.8786    0.5468 
479   -1.3981   -0.4187 
480    0.6405   -0.1315 
481    0.4876    1.2953 
482    1.3122    0.3406 
483   -1.0026   -1.6476 
484    1.9305   -0.5660 
485   -0.7187   -0.1789 
486   -1.1884    0.3908 
487   -0.8383    1.4981 
488   -0.2104   -1.7071 
489    0.7176    0.9183 
490    0.4085    0.3434 
491 -9.633e-02    0.8196 
492   -1.4496    2.9093 
493 -2.009e-02    1.9890 
494    1.0652    0.9492 
495    0.4841   -0.3543 
496    0.3837   -0.3808 
497    0.2753    0.8223 
498    0.4845    0.5143 
499    0.8421   -1.6046 
500   -1.5824    1.9104 
501    0.5698   -0.6947 
502    1.1420   -0.8188 
503   -0.6089  8.549e-02 
504   -2.8955    0.5153 
505   -0.1394   -0.7243 
506    1.2516    1.9445 
507    2.0530 -1.708e-02 
508    0.1565   -0.4110 
509 -1.257e-02    0.5100 
510   -0.2432   -0.9423 
511    0.5569   -1.0355 
512    0.2519   -1.2180 
513   -2.2101    0.5114 
514    0.5988   -1.0138 
515    1.7136    0.9253 
516    0.5145    0.2135 
517  5.485e-02   -0.5937 
518    2.0742   -0.5349 
519   -0.4928    0.4828 
520   -1.5610    0.4481 
521  1.570e-02    2.0468 
522    0.6001   -0.9955 
523   -1.5702   -0.7192 
524   -1.7493    0.1448 
525   -0.5290    1.5102 
526    0.5712   -0.2769 
527   -0.3249    0.4993 
528    0.6487    1.1388 
529   -1.4332 -3.159e-02 
530   -0.5336    1.0082 
531    0.7110    2.0996 
532   -0.7722    0.2691 
533    0.9651   -0.2758 
534   -1.4959    0.4739 
535    1.0589   -0.1468 
536   -0.3021   -0.2920 
537   -0.8176    1.1901 
538    0.6816   -0.6147 
539   -0.2362    0.6916 
540    0.1418    0.4795 
541   -0.3420    0.8656 
542    1.2780 -1.242e-02 
543   -0.2252   -1.0152 
544   -0.5072    1.2654 
545   -1.4700   -0.4731 
546   -1.5993   -0.8781 
547    0.5889    1.0581 
548   -0.8291   -0.3447 
549    1.4169 -7.855e-02 
550    1.1935    1.4849 
551    0.2033    1.1703 
552    0.3552    1.0983 
553   -1.0741    0.7966 
554   -0.4068    1.1529 
555   -0.5050    2.8444 
556   -1.0139    0.1463 
557 -9.960e-03   -0.4871 
558   -1.6114   -0.1319 
559   -0.3844    0.3527 
560   -1.3736   -0.9475 
561    0.6959    0.4680 
562    0.3574   -0.4429 
563   -0.6132   -0.6373 
564 -8.917e-02    0.1312 
565   -1.9642    1.2073 
566    0.3266   -1.2963 
567 -9.167e-02    0.2740 
568   -1.0115    0.5134 
569   -1.9752   -0.7071 
570    1.9887   -0.7532 
571   -1.5532    1.1942 
572   -1.8225    0.6039 
573    1.0218   -0.3997 
574   -1.6536   -0.1057 
575    1.0620    1.3794 
576    1.7215    0.4534 
577   -0.1484   -0.1634 
578 -9.905e-02    0.3399 
579   -1.0983  8.252e-02 
580   -0.2978    1.2723 
581   -0.6362   -0.8161 
582  9.823e-02    1.4580 
583   -0.4102   -1.1192 
584    1.8908    0.3457 
585    1.1411    0.5785 
586    0.6708    0.4663 
587  5.462e-02   -0.6711 
588    1.0609    0.8213 
589    1.5727    1.1199 
590   -0.3122   -1.0247 
591   -0.8205    0.4202 
592    0.2597   -0.3632 
593   -1.4497   -0.6834 
594    0.7152    1.1168 
595 -6.158e-02   -0.1136 
596    1.0759    0.2526 
597   -0.3371   -0.4717 
598  5.154e-02    0.8995 
599    0.5375   -1.5226 
600    0.3657    2.7510 
601    0.6933   -0.1983 
602   -0.1800    0.4087 
603   -0.1203   -0.6064 
604    0.9651    1.0308 
605   -0.7766   -1.2119 
606   -1.0584    1.2966 
607  5.568e-02    0.5289 
608   -0.9452   -2.1103 
609   -0.4130   -2.1098 
610    0.5307   -0.5760 
611   -0.5604   -2.1786 
612    0.9811   -0.8596 
613    0.2510   -0.2654 
614   -0.9197    1.0632 
615   -0.9023   -0.3994 
616    1.2521   -1.3954 
617    1.1660    0.7533 
618   -1.0967 -3.070e-02 
619   -1.6483    0.7288 
620    0.9549    0.6711 
621   -0.5250    0.4748 
622    1.3253    0.5786 
623   -1.9967    2.7900 
624   -0.4405   -0.3732 
625   -0.3955   -1.8093 
626    0.7834   -1.4285 
627   -0.5056    1.3902 
628    1.6390    0.6134 
629    0.9562   -0.8961 
630   -0.5690 -8.376e-02 
631    0.8117    0.5632 
632    0.8430    2.1099 
633   -0.1984    1.5195 
634   -0.5556    0.3397 
635    0.3800    1.6821 
636   -0.3869   -1.0057 
637    0.8966    0.4378 
638    0.4298   -0.6643 
639   -0.8701   -0.8035 
640    0.4438    0.4095 
641   -1.1785    0.4852 
642    0.3478    0.9084 
643   -1.0020    2.2585 
644 -8.044e-02   -0.9649 
645   -0.1049   -0.7189 
646   -0.5528   -0.9047 
647    0.3754    0.9523 
648    1.0577   -0.5891 
649   -0.9804    0.5247 
650   -1.2299    1.8336 
651   -0.8828   -0.5040 
652    1.2335   -0.4004 
653   -0.8392    1.5122 
654    1.9154    0.1720 
655   -0.3050    0.7215 
656   -0.8936    0.4080 
657    0.7110    0.4801 
658    0.6277 -1.306e-02 
659   -0.8171    0.4748 
660   -0.3657   -1.1707 
661   -0.3517    0.9002 
662   -0.9846   -0.3972 
663 -3.113e-02    0.1380 
664    1.2285   -0.8049 
665  9.649e-02   -0.4382 
666    0.2812    0.8920 
667    0.5371   -0.4744 
668    0.8929    1.3399 
669    0.1131    1.1857 
670    0.5492   -0.1152 
671    2.0167 -4.154e-03 
672   -2.0028   -0.7834 
673    0.6282    1.3879 
674   -0.5589   -1.9809 
675   -1.0752   -1.4350 
676    1.1344   -1.1251 
677    0.8695   -0.2722 
678   -0.2143  7.750e-02 
679    1.6352   -1.8644 
680   -0.1940   -1.2668 
681   -0.2076    1.9080 
682    0.2621    0.4125 
683    0.4506   -1.4679 
684   -0.1768    0.4929 
685   -0.9640   -1.0521 
686    0.6730   -0.7955 
687    1.4924   -1.2220 
688 -7.216e-02    0.4687 
689   -0.3372   -1.1644 
690   -1.0438   -0.9948 
691    1.8587    0.8235 
692    0.6580    0.8429 
693    0.7686    0.4553 
694    1.0342    0.5102 
695   -0.9821   -0.4715 
696    0.3699    1.1125 
697  5.102e-02   -0.1948 
698    1.1781  6.447e-02 
699    0.6212    0.5030 
700    0.5483   -0.7003 
701   -0.6910    0.7245 
702   -0.4793    1.5758 
703    2.3207    0.5746 
704    0.4482    0.8424 
705   -0.5211    0.6153 
706   -0.7606    1.1188 
707    0.5828  3.734e-02 
708    0.3973   -0.6165 
709    1.1858   -0.4206 
710   -1.1008   -1.1012 
711    1.2967 -4.257e-02 
712    1.2351    0.2595 
713    2.1400   -0.9427 
714   -0.3084   -1.0967 
715    1.0436    0.9267 
716    0.2012   -0.1383 
717   -0.1963  4.122e-02 
718 -6.755e-02 -5.687e-02 
719    0.5082    1.8564 
720   -0.7822   -0.5810 
721   -0.7629   -0.3750 
722 -2.524e-02   -0.3681 
723    0.7919    0.6452 
724   -0.6144    0.2094 
725    0.1463    0.4241 
726    2.5813 -2.946e-02 
727   -1.3472   -1.0705 
728   -1.5304   -0.2805 
729   -0.6621    0.6100 
730    0.6002   -1.0611 
731    0.5717   -0.1936 
732   -0.1085    0.9564 
733    1.9509   -0.7604 
734    1.0114   -0.5783 
735    0.7361   -0.4974 
736   -0.2687   -1.1162 
737    1.0736 -2.690e-02 
738   -0.4254   -1.4073 
739   -0.1768    0.6327 
740    0.8657    0.5089 
741    2.2197  2.673e-02 
742   -0.3354   -1.2045 
743   -1.1796    0.2839 
744   -1.5569  6.763e-02 
745   -1.4428   -0.2867 
746   -0.7852    0.7754 
747    0.4392   -0.4566 
748   -0.7820   -0.1400 
749    0.5353    2.0142 
750   -0.7304    0.5122 
751   -0.9991   -1.4165 
752  1.796e-02   -1.1243 
753    0.8891   -0.9291 
754    0.2105   -0.9661 
755    0.4031    0.2099 
756    0.4017    1.3108 
757    0.4740   -1.6872 
758    0.1901   -0.4028 
759   -1.3221    1.3490 
760    1.9038    0.1736 
761    2.1760    0.6036 
762    1.1779   -0.1375 
763   -0.8287   -1.5131 
764  3.894e-02   -1.1862 
765   -0.2828   -0.4562 
766 -5.441e-02   -1.4066 
767    0.3012   -0.6233 
768   -0.6303    0.8662 
769 -4.536e-02   -0.1703 
770   -0.9165    0.9538 
771   -0.7454 -8.238e-02 
772   -0.6634    0.5798 
773   -0.2395    1.4380 
774   -1.2818   -0.9118 
775    0.3699   -2.0646 
776   -0.4156    0.4044 
777   -0.3612   -0.7301 
778    1.5345    1.0714 
779    0.2701    0.5095 
780    1.3982   -0.9368 
781   -0.7642    0.2495 
782 -2.413e-02  2.602e-02 
783   -0.3412    1.2605 
784    1.2921  5.939e-02 
785    1.1711   -0.1533 
786   -1.0863   -0.1258 
787   -0.6645   -0.1579 
788   -2.4361   -0.8779 
789    0.3690    0.3189 
790   -0.6266   -0.8683 
791    0.5304    1.2274 
792   -0.1104    0.7016 
793    0.3505    0.1727 
794    0.1092  9.039e-02 
795   -2.5118   -0.4659 
796    2.0961    0.5725 
797   -0.5121    0.6194 
798   -1.8767    0.9162 
799    1.6102   -1.3670 
800   -0.4847   -0.4944 
801    1.0373    0.1776 
802    2.0794   -0.9913 
803   -0.2578    2.0715 
804    0.5501    1.8210 
805  9.331e-02    0.9240 
806    0.4552   -0.1892 
807   -1.0755    1.1174 
808   -0.5200    0.1265 
809   -1.7171   -0.9862 
810   -0.3036 -8.051e-02 
811    0.4282   -0.4314 
812   -2.5007    0.7121 
813    1.1382    1.6376 
814   -0.1496    1.2236 
815   -1.5690   -2.5440 
816   -1.3651   -0.6352 
817    0.7185 -5.945e-02 
818  3.681e-02    1.1158 
819   -0.2777    1.3084 
820 -4.398e-02   -0.3439 
821    0.6585    0.8470 
822    1.5123   -0.4449 
823    1.2590   -0.6252 
824   -0.5061    0.8938 
825    0.4784    1.1413 
826   -0.6782    2.5411 
827   -2.0457   -0.4010 
828    1.0458    0.3234 
829    0.2309    1.4212 
830   -1.0781   -0.7526 
831    0.6993   -1.6648 
832    1.7338   -0.1777 
833   -0.2408    0.1589 
834   -0.1688    0.7455 
835   -1.2085   -1.1538 
836    1.7201    1.6353 
837   -0.2847   -1.9094 
838    0.7773    0.7832 
839    0.6627    2.3586 
840    0.8402   -0.4362 
841    0.1749    0.3950 
842   -0.1280   -1.9678 
843    0.1542   -2.2767 
844    0.8275   -1.4296 
845    0.9628   -1.4817 
846   -0.4251    2.5650 
847   -1.8262    0.4243 
848    1.1175   -0.6938 
849   -0.2255   -0.4172 
850    0.9909    0.2326 
851   -0.7877   -1.3085 
852    1.8014   -1.0006 
853    0.8795   -1.1628 
854   -0.2764   -0.1098 
855    0.2515   -0.7281 
856    0.2286   -0.2785 
857    0.5493   -0.7609 
858   -0.3133    0.9990 
859   -0.5062   -1.7577 
860   -1.6448    1.2031 
861  2.814e-02    0.8402 
862   -2.3214    0.7904 
863   -0.2253   -0.1510 
864   -0.4029    0.4391 
865   -0.7652   -0.8143 
866   -0.2069    0.8375 
867    0.7788    0.6477 
868    0.4954    0.6507 
869    0.1000    0.2869 
870   -0.7249    0.9495 
871    0.6035   -0.3703 
872    0.7583   -1.0389 
873   -1.5294    1.3974 
874   -0.3488    1.1619 
875   -0.7852    0.7726 
876   -0.8809    0.2103 
877    0.4462    0.3801 
878    1.3051  5.702e-02 
879    0.9910   -1.2184 
880    0.3926   -0.3355 
881   -1.0730   -0.1414 
882    0.2841   -0.4974 
883   -0.7026    1.0858 
884    1.0093    0.8199 
885   -0.1357    1.7840 
886 -4.091e-03   -0.3122 
887   -1.8289   -0.6965 
888 -3.837e-02   -0.7869 
889    0.7294    2.3295 
890   -0.1783    1.8492 
891  9.993e-02    1.9393 
892   -0.3765   -0.5966 
893    0.3276   -0.3825 
894    0.7989   -1.5158 
895    0.7293   -0.3878 
896    0.6056   -0.4843 
897    0.5917   -0.9827 
898    0.7575   -0.8308 
899   -0.5153   -1.1683 
900   -2.1116   -0.3524 
901    0.5988 -1.486e-02 
902    0.5432  3.877e-03 
903   -1.5440  1.361e-02 
904    1.2526    1.4800 
905    0.3722    0.6776 
906   -0.7016    0.5354 
907    0.5314   -0.5229 
908    0.5716    0.1638 
909   -1.2766   -1.6118 
910    2.2808   -1.0702 
911    1.3425   -0.6593 
912  3.774e-02   -0.2460 
913   -0.4364   -0.5820 
914    1.3762   -1.0165 
915   -0.3732    1.1042 
916   -1.7020    0.5823 
917    1.7517    1.6899 
918    0.8145    1.4250 
919   -1.5705   -1.7402 
920 -3.417e-02    1.9985 
921    0.4785   -1.2227 
922   -0.8741    0.3840 
923    1.8673  9.172e-02 
924   -0.4076    0.5767 
925   -0.2048    1.6931 
926    0.6314   -0.1774 
927    1.0811    0.3919 
928   -1.9052    0.6492 
929   -0.3918  7.892e-02 
930   -0.7127   -0.2457 
931   -0.3686   -1.3055 
932    0.7981 -1.906e-02 
933   -1.1248    0.2541 
934  3.654e-02   -0.2388 
935   -1.4864    0.2566 
936   -1.1901   -1.6720 
937    0.6503   -1.0832 
938   -1.1447   -0.5344 
939    0.6591   -0.7283 
940   -0.9598   -0.4079 
941 -8.002e-02    0.9447 
942  5.658e-02    0.4053 
943   -0.5296   -0.3370 
944    3.2659   -0.2222 
945   -1.2224    0.7607 
946   -0.3578   -0.8648 
947    1.3926   -1.2122 
948   -0.2193    2.2223 
949   -1.4174    0.8128 
950    0.5844    0.7385 
951    0.3058   -1.1753 
952   -1.1194   -0.1688 
953   -0.2394   -0.1348 
954    1.3437    0.7181 
955    3.0389    1.7975 
956 -1.908e-02    1.9713 
957    0.5312    1.8875 
958   -0.5166    0.8505 
959   -0.8151    0.9448 
960    0.3994    0.3456 
961   -0.4766    1.4677 
962    0.4204    0.7298 
963    1.0258   -0.2268 
964    0.9546   -0.9415 
965    0.1281   -0.7596 
966    0.2317   -0.5278 
967   -0.7945    0.4995 
968   -0.4056  8.084e-02 
969  3.872e-02   -0.5969 
970    0.2389   -0.3301 
971    1.3830   -0.5058 
972    1.5466   -1.2200 
973   -1.0106   -0.5899 
974    1.9697  4.236e-02 
975   -1.2906   -0.1988 
976    0.7325   -0.2633 
977   -0.7711    1.9206 
978    1.1967   -1.3831 
979   -1.3139    0.1730 
980    0.2555    1.3070 
981    0.1868   -1.7847 
982    0.3328    0.7097 
983   -0.1406   -0.7946 
984   -0.3999   -0.2997 
985  9.048e-02   -0.4058 
986    0.2924   -0.4085 
987  6.531e-02    1.0660 
988    0.1157   -0.5587 
989   -2.0224   -0.7179 
990   -0.7663   -1.3928 
991    1.2249   -0.8101 
992    0.6908    0.5178 
993    0.2740    0.4155 
994    0.4839    0.2462 
995    0.3643    2.4914 
996   -0.6598   -1.3926 
997  7.444e-02   -0.8943 
998    0.7457   -0.2564 
999   -0.8079    0.9648 
1000   -0.6806 -9.993e-02 
