****** HSPICE -- Q-2020.03-SP2-2 linux64 (Nov  1 2020) ******
Input File: ex3_2.sp
lic:
lic: FLEXlm: SDK_12.6
lic: USER:   es26mcs068           HOSTNAME: ee24
lic: HOSTID: "d85ed3efc3e3"       PID:      79590
lic: Using FLEXlm license file:
lic: 26585@lshc
lic: Checkout 1 hspice
lic: License/Maintenance for hspice will expire on 14-jun-2027/2026.03
lic: 505(in_use)/1235(total) FLOATING license(s) on SERVER 26585@lshc
lic:

 init: begin read circuit files, cpu clock= 1.36E-01
       option search = /usr/cad/synopsys/hspice/cur/hspice/Q-2020.03-SP2-2/hspice/parts/ad
       option search = /usr/cad/synopsys/hspice/cur/hspice/Q-2020.03-SP2-2/hspice/parts/behave
       option search = /usr/cad/synopsys/hspice/cur/hspice/Q-2020.03-SP2-2/hspice/parts/bjt
       option search = /usr/cad/synopsys/hspice/cur/hspice/Q-2020.03-SP2-2/hspice/parts/burr_brn
       option search = /usr/cad/synopsys/hspice/cur/hspice/Q-2020.03-SP2-2/hspice/parts/comlinear
       option search = /usr/cad/synopsys/hspice/cur/hspice/Q-2020.03-SP2-2/hspice/parts/dio
       option search = /usr/cad/synopsys/hspice/cur/hspice/Q-2020.03-SP2-2/hspice/parts/fet
       option search = /usr/cad/synopsys/hspice/cur/hspice/Q-2020.03-SP2-2/hspice/parts/lin_tech
       option search = /usr/cad/synopsys/hspice/cur/hspice/Q-2020.03-SP2-2/hspice/parts/pci
       option search = /usr/cad/synopsys/hspice/cur/hspice/Q-2020.03-SP2-2/hspice/parts/signet
       option search = /usr/cad/synopsys/hspice/cur/hspice/Q-2020.03-SP2-2/hspice/parts/ti
       option search = /usr/cad/synopsys/hspice/cur/hspice/Q-2020.03-SP2-2/hspice/parts/tline
       option search = /usr/cad/synopsys/hspice/cur/hspice/Q-2020.03-SP2-2/hspice/parts/xilinx
       option post
       option probe
       option cshunt =    1.000E-15
       option seed = random
 init: end read circuit files, cpu clock= 1.46E-01 peak memory=     399 mb
 init: begin check errors, cpu clock= 1.46E-01
 init: end check errors, cpu clock= 2.21E-01 peak memory=     401 mb
 init: begin setup matrix, pivot=     0 cpu clock= 2.21E-01
       establish matrix -- done, cpu clock= 2.21E-01 peak memory=     401 mb
       re-order matrix -- done, cpu clock= 2.21E-01 peak memory=     401 mb
 init: end setup matrix, cpu clock= 2.31E-01 peak memory=     401 mb
 dcop: begin dcop, cpu clock= 2.31E-01
 dcop: end dcop, cpu clock= 2.47E-01 peak memory=     402 mb tot_iter=      12
 sweep: monte_carlo     monte_carlo1     begin, #sweeps =1000
 dcop: begin dcop, cpu clock= 2.48E-01
 dcop: end dcop, cpu clock= 2.57E-01 peak memory=     402 mb tot_iter=      24
 output: ex3_2.mt0
 sweep: tran tran1    begin, stop_t=  5.00E-09 #sweeps= 101 cpu clock= 2.69E-01
 sweep: tran tran1    end, cpu clock= 2.78E-01 peak memory=     402 mb
 dcop: begin dcop, cpu clock= 2.80E-01
 dcop: end dcop, cpu clock= 2.85E-01 peak memory=     402 mb tot_iter=      33
 output: ex3_2.mt0
 sweep: tran tran2    begin, stop_t=  5.00E-09 #sweeps= 101 cpu clock= 2.85E-01
 sweep: tran tran2    end, cpu clock= 2.97E-01 peak memory=     402 mb
 dcop: begin dcop, cpu clock= 2.98E-01
 dcop: end dcop, cpu clock= 3.02E-01 peak memory=     402 mb tot_iter=      42
 output: ex3_2.mt0
 sweep: tran tran3    begin, stop_t=  5.00E-09 #sweeps= 101 cpu clock= 3.04E-01
 sweep: tran tran3    end, cpu clock= 3.19E-01 peak memory=     402 mb
 dcop: begin dcop, cpu clock= 3.21E-01
 dcop: end dcop, cpu clock= 3.22E-01 peak memory=     402 mb tot_iter=      51
 output: ex3_2.mt0
 sweep: tran tran4    begin, stop_t=  5.00E-09 #sweeps= 101 cpu clock= 3.22E-01
 sweep: tran tran4    end, cpu clock= 3.30E-01 peak memory=     402 mb
 dcop: begin dcop, cpu clock= 3.32E-01
 dcop: end dcop, cpu clock= 3.33E-01 peak memory=     402 mb tot_iter=      60
 output: ex3_2.mt0
 sweep: tran tran5    begin, stop_t=  5.00E-09 #sweeps= 101 cpu clock= 3.33E-01
 sweep: tran tran5    end, cpu clock= 3.47E-01 peak memory=     402 mb
 dcop: begin dcop, cpu clock= 3.48E-01
 dcop: end dcop, cpu clock= 3.51E-01 peak memory=     402 mb tot_iter=      69
 output: ex3_2.mt0
 sweep: tran tran6    begin, stop_t=  5.00E-09 #sweeps= 101 cpu clock= 3.51E-01
 sweep: tran tran6    end, cpu clock= 3.61E-01 peak memory=     402 mb
 dcop: begin dcop, cpu clock= 3.63E-01
 dcop: end dcop, cpu clock= 3.65E-01 peak memory=     402 mb tot_iter=      78
 output: ex3_2.mt0
 sweep: tran tran7    begin, stop_t=  5.00E-09 #sweeps= 101 cpu clock= 3.65E-01
 sweep: tran tran7    end, cpu clock= 3.74E-01 peak memory=     402 mb
 dcop: begin dcop, cpu clock= 3.76E-01
 dcop: end dcop, cpu clock= 3.79E-01 peak memory=     402 mb tot_iter=      87
 output: ex3_2.mt0
 sweep: tran tran8    begin, stop_t=  5.00E-09 #sweeps= 101 cpu clock= 3.79E-01
 sweep: tran tran8    end, cpu clock= 3.89E-01 peak memory=     402 mb
 dcop: begin dcop, cpu clock= 3.91E-01
 dcop: end dcop, cpu clock= 3.94E-01 peak memory=     402 mb tot_iter=      96
 output: ex3_2.mt0
 sweep: tran tran9    begin, stop_t=  5.00E-09 #sweeps= 101 cpu clock= 3.94E-01
 sweep: tran tran9    end, cpu clock= 4.05E-01 peak memory=     402 mb
 dcop: begin dcop, cpu clock= 4.08E-01
 dcop: end dcop, cpu clock= 4.10E-01 peak memory=     402 mb tot_iter=     105
 output: ex3_2.mt0
 sweep: tran tran10   begin, stop_t=  5.00E-09 #sweeps= 101 cpu clock= 4.10E-01
 sweep: tran tran10   end, cpu clock= 4.19E-01 peak memory=     402 mb
 dcop: begin dcop, cpu clock= 4.21E-01
 dcop: end dcop, cpu clock= 4.23E-01 peak memory=     402 mb tot_iter=     114
 output: ex3_2.mt0
 sweep: tran tran11   begin, stop_t=  5.00E-09 #sweeps= 101 cpu clock= 4.23E-01
 sweep: tran tran11   end, cpu clock= 4.32E-01 peak memory=     402 mb
 dcop: begin dcop, cpu clock= 4.34E-01
 dcop: end dcop, cpu clock= 4.36E-01 peak memory=     402 mb tot_iter=     123
 output: ex3_2.mt0
 sweep: tran tran12   begin, stop_t=  5.00E-09 #sweeps= 101 cpu clock= 4.36E-01
 sweep: tran tran12   end, cpu clock= 4.45E-01 peak memory=     402 mb
 dcop: begin dcop, cpu clock= 4.47E-01
 dcop: end dcop, cpu clock= 4.50E-01 peak memory=     402 mb tot_iter=     132
 output: ex3_2.mt0
 sweep: tran tran13   begin, stop_t=  5.00E-09 #sweeps= 101 cpu clock= 4.50E-01
 sweep: tran tran13   end, cpu clock= 4.59E-01 peak memory=     402 mb
 dcop: begin dcop, cpu clock= 4.62E-01
 dcop: end dcop, cpu clock= 4.66E-01 peak memory=     402 mb tot_iter=     141
 output: ex3_2.mt0
 sweep: tran tran14   begin, stop_t=  5.00E-09 #sweeps= 101 cpu clock= 4.66E-01
 sweep: tran tran14   end, cpu clock= 4.75E-01 peak memory=     402 mb
 dcop: begin dcop, cpu clock= 4.76E-01
 dcop: end dcop, cpu clock= 4.79E-01 peak memory=     402 mb tot_iter=     150
 output: ex3_2.mt0
 sweep: tran tran15   begin, stop_t=  5.00E-09 #sweeps= 101 cpu clock= 4.84E-01
 sweep: tran tran15   end, cpu clock= 4.94E-01 peak memory=     402 mb
 dcop: begin dcop, cpu clock= 4.95E-01
 dcop: end dcop, cpu clock= 4.96E-01 peak memory=     402 mb tot_iter=     159
 output: ex3_2.mt0
 sweep: tran tran16   begin, stop_t=  5.00E-09 #sweeps= 101 cpu clock= 4.96E-01
 sweep: tran tran16   end, cpu clock= 5.04E-01 peak memory=     402 mb
 dcop: begin dcop, cpu clock= 5.06E-01
 dcop: end dcop, cpu clock= 5.08E-01 peak memory=     402 mb tot_iter=     168
 output: ex3_2.mt0
 sweep: tran tran17   begin, stop_t=  5.00E-09 #sweeps= 101 cpu clock= 5.08E-01
 sweep: tran tran17   end, cpu clock= 5.18E-01 peak memory=     402 mb
 dcop: begin dcop, cpu clock= 5.21E-01
 dcop: end dcop, cpu clock= 5.22E-01 peak memory=     402 mb tot_iter=     177
 output: ex3_2.mt0
 sweep: tran tran18   begin, stop_t=  5.00E-09 #sweeps= 101 cpu clock= 5.22E-01
 sweep: tran tran18   end, cpu clock= 5.32E-01 peak memory=     402 mb
 dcop: begin dcop, cpu clock= 5.34E-01
 dcop: end dcop, cpu clock= 5.35E-01 peak memory=     402 mb tot_iter=     186
 output: ex3_2.mt0
 sweep: tran tran19   begin, stop_t=  5.00E-09 #sweeps= 101 cpu clock= 5.35E-01
 sweep: tran tran19   end, cpu clock= 5.43E-01 peak memory=     402 mb
 dcop: begin dcop, cpu clock= 5.45E-01
 dcop: end dcop, cpu clock= 5.47E-01 peak memory=     402 mb tot_iter=     195
 output: ex3_2.mt0
 sweep: tran tran20   begin, stop_t=  5.00E-09 #sweeps= 101 cpu clock= 5.47E-01
 sweep: tran tran20   end, cpu clock= 5.55E-01 peak memory=     402 mb
 dcop: begin dcop, cpu clock= 5.58E-01
 dcop: end dcop, cpu clock= 5.63E-01 peak memory=     402 mb tot_iter=     204
 output: ex3_2.mt0
 sweep: tran tran21   begin, stop_t=  5.00E-09 #sweeps= 101 cpu clock= 5.63E-01
 sweep: tran tran21   end, cpu clock= 5.76E-01 peak memory=     402 mb
 dcop: begin dcop, cpu clock= 5.78E-01
 dcop: end dcop, cpu clock= 5.80E-01 peak memory=     402 mb tot_iter=     213
 output: ex3_2.mt0
 sweep: tran tran22   begin, stop_t=  5.00E-09 #sweeps= 101 cpu clock= 5.80E-01
 sweep: tran tran22   end, cpu clock= 5.90E-01 peak memory=     402 mb
 dcop: begin dcop, cpu clock= 5.92E-01
 dcop: end dcop, cpu clock= 5.95E-01 peak memory=     402 mb tot_iter=     222
 output: ex3_2.mt0
 sweep: tran tran23   begin, stop_t=  5.00E-09 #sweeps= 101 cpu clock= 5.95E-01
 sweep: tran tran23   end, cpu clock= 6.03E-01 peak memory=     402 mb
 dcop: begin dcop, cpu clock= 6.05E-01
 dcop: end dcop, cpu clock= 6.08E-01 peak memory=     402 mb tot_iter=     231
 output: ex3_2.mt0
 sweep: tran tran24   begin, stop_t=  5.00E-09 #sweeps= 101 cpu clock= 6.08E-01
 sweep: tran tran24   end, cpu clock= 6.17E-01 peak memory=     402 mb
 dcop: begin dcop, cpu clock= 6.19E-01
 dcop: end dcop, cpu clock= 6.23E-01 peak memory=     402 mb tot_iter=     240
 output: ex3_2.mt0
 sweep: tran tran25   begin, stop_t=  5.00E-09 #sweeps= 101 cpu clock= 6.26E-01
 sweep: tran tran25   end, cpu clock= 6.37E-01 peak memory=     402 mb
 dcop: begin dcop, cpu clock= 6.39E-01
 dcop: end dcop, cpu clock= 6.40E-01 peak memory=     402 mb tot_iter=     249
 output: ex3_2.mt0
 sweep: tran tran26   begin, stop_t=  5.00E-09 #sweeps= 101 cpu clock= 6.40E-01
 sweep: tran tran26   end, cpu clock= 6.48E-01 peak memory=     402 mb
 dcop: begin dcop, cpu clock= 6.49E-01
 dcop: end dcop, cpu clock= 6.52E-01 peak memory=     402 mb tot_iter=     258
 output: ex3_2.mt0
 sweep: tran tran27   begin, stop_t=  5.00E-09 #sweeps= 101 cpu clock= 6.55E-01
 sweep: tran tran27   end, cpu clock= 6.66E-01 peak memory=     402 mb
 dcop: begin dcop, cpu clock= 6.69E-01
 dcop: end dcop, cpu clock= 6.70E-01 peak memory=     402 mb tot_iter=     267
 output: ex3_2.mt0
 sweep: tran tran28   begin, stop_t=  5.00E-09 #sweeps= 101 cpu clock= 6.70E-01
 sweep: tran tran28   end, cpu clock= 6.78E-01 peak memory=     402 mb
 dcop: begin dcop, cpu clock= 6.79E-01
 dcop: end dcop, cpu clock= 6.82E-01 peak memory=     403 mb tot_iter=     276
 output: ex3_2.mt0
 sweep: tran tran29   begin, stop_t=  5.00E-09 #sweeps= 101 cpu clock= 6.85E-01
 sweep: tran tran29   end, cpu clock= 6.96E-01 peak memory=     403 mb
 dcop: begin dcop, cpu clock= 6.96E-01
 dcop: end dcop, cpu clock= 6.98E-01 peak memory=     403 mb tot_iter=     285
 output: ex3_2.mt0
 sweep: tran tran30   begin, stop_t=  5.00E-09 #sweeps= 101 cpu clock= 6.98E-01
 sweep: tran tran30   end, cpu clock= 7.11E-01 peak memory=     403 mb
 dcop: begin dcop, cpu clock= 7.14E-01
 dcop: end dcop, cpu clock= 7.18E-01 peak memory=     403 mb tot_iter=     294
 output: ex3_2.mt0
 sweep: tran tran31   begin, stop_t=  5.00E-09 #sweeps= 101 cpu clock= 7.18E-01
 sweep: tran tran31   end, cpu clock= 7.28E-01 peak memory=     403 mb
 dcop: begin dcop, cpu clock= 7.31E-01
 dcop: end dcop, cpu clock= 7.34E-01 peak memory=     403 mb tot_iter=     303
 output: ex3_2.mt0
 sweep: tran tran32   begin, stop_t=  5.00E-09 #sweeps= 101 cpu clock= 7.37E-01
 sweep: tran tran32   end, cpu clock= 7.50E-01 peak memory=     397 mb
 dcop: begin dcop, cpu clock= 7.51E-01
 dcop: end dcop, cpu clock= 7.52E-01 peak memory=     397 mb tot_iter=     312
 output: ex3_2.mt0
 sweep: tran tran33   begin, stop_t=  5.00E-09 #sweeps= 101 cpu clock= 7.52E-01
 sweep: tran tran33   end, cpu clock= 7.65E-01 peak memory=     397 mb
 dcop: begin dcop, cpu clock= 7.67E-01
 dcop: end dcop, cpu clock= 7.70E-01 peak memory=     397 mb tot_iter=     321
 output: ex3_2.mt0
 sweep: tran tran34   begin, stop_t=  5.00E-09 #sweeps= 101 cpu clock= 7.70E-01
 sweep: tran tran34   end, cpu clock= 7.84E-01 peak memory=     397 mb
 dcop: begin dcop, cpu clock= 7.86E-01
 dcop: end dcop, cpu clock= 7.90E-01 peak memory=     397 mb tot_iter=     330
 output: ex3_2.mt0
 sweep: tran tran35   begin, stop_t=  5.00E-09 #sweeps= 101 cpu clock= 7.90E-01
 sweep: tran tran35   end, cpu clock= 8.01E-01 peak memory=     397 mb
 dcop: begin dcop, cpu clock= 8.03E-01
 dcop: end dcop, cpu clock= 8.06E-01 peak memory=     397 mb tot_iter=     339
 output: ex3_2.mt0
 sweep: tran tran36   begin, stop_t=  5.00E-09 #sweeps= 101 cpu clock= 8.08E-01
 sweep: tran tran36   end, cpu clock= 8.23E-01 peak memory=     397 mb
 dcop: begin dcop, cpu clock= 8.25E-01
 dcop: end dcop, cpu clock= 8.29E-01 peak memory=     397 mb tot_iter=     348
 output: ex3_2.mt0
 sweep: tran tran37   begin, stop_t=  5.00E-09 #sweeps= 101 cpu clock= 8.32E-01
 sweep: tran tran37   end, cpu clock= 8.44E-01 peak memory=     397 mb
 dcop: begin dcop, cpu clock= 8.45E-01
 dcop: end dcop, cpu clock= 8.48E-01 peak memory=     397 mb tot_iter=     357
 output: ex3_2.mt0
 sweep: tran tran38   begin, stop_t=  5.00E-09 #sweeps= 101 cpu clock= 8.51E-01
 sweep: tran tran38   end, cpu clock= 8.62E-01 peak memory=     397 mb
 dcop: begin dcop, cpu clock= 8.65E-01
 dcop: end dcop, cpu clock= 8.68E-01 peak memory=     397 mb tot_iter=     366
 output: ex3_2.mt0
 sweep: tran tran39   begin, stop_t=  5.00E-09 #sweeps= 101 cpu clock= 8.68E-01
 sweep: tran tran39   end, cpu clock= 8.79E-01 peak memory=     397 mb
 dcop: begin dcop, cpu clock= 8.82E-01
 dcop: end dcop, cpu clock= 8.86E-01 peak memory=     397 mb tot_iter=     375
 output: ex3_2.mt0
 sweep: tran tran40   begin, stop_t=  5.00E-09 #sweeps= 101 cpu clock= 8.86E-01
 sweep: tran tran40   end, cpu clock= 8.95E-01 peak memory=     397 mb
 dcop: begin dcop, cpu clock= 8.95E-01
 dcop: end dcop, cpu clock= 8.98E-01 peak memory=     397 mb tot_iter=     384
 output: ex3_2.mt0
 sweep: tran tran41   begin, stop_t=  5.00E-09 #sweeps= 101 cpu clock= 9.01E-01
 sweep: tran tran41   end, cpu clock= 9.08E-01 peak memory=     397 mb
 dcop: begin dcop, cpu clock= 9.12E-01
 dcop: end dcop, cpu clock= 9.16E-01 peak memory=     397 mb tot_iter=     393
 output: ex3_2.mt0
 sweep: tran tran42   begin, stop_t=  5.00E-09 #sweeps= 101 cpu clock= 9.16E-01
 sweep: tran tran42   end, cpu clock= 9.24E-01 peak memory=     397 mb
 dcop: begin dcop, cpu clock= 9.25E-01
 dcop: end dcop, cpu clock= 9.28E-01 peak memory=     397 mb tot_iter=     402
 output: ex3_2.mt0
 sweep: tran tran43   begin, stop_t=  5.00E-09 #sweeps= 101 cpu clock= 9.31E-01
 sweep: tran tran43   end, cpu clock= 9.42E-01 peak memory=     397 mb
 dcop: begin dcop, cpu clock= 9.45E-01
 dcop: end dcop, cpu clock= 9.48E-01 peak memory=     397 mb tot_iter=     411
 output: ex3_2.mt0
 sweep: tran tran44   begin, stop_t=  5.00E-09 #sweeps= 101 cpu clock= 9.48E-01
 sweep: tran tran44   end, cpu clock= 9.55E-01 peak memory=     397 mb
 dcop: begin dcop, cpu clock= 9.59E-01
 dcop: end dcop, cpu clock= 9.66E-01 peak memory=     397 mb tot_iter=     420
 output: ex3_2.mt0
 sweep: tran tran45   begin, stop_t=  5.00E-09 #sweeps= 101 cpu clock= 9.69E-01
 sweep: tran tran45   end, cpu clock= 9.79E-01 peak memory=     397 mb
 dcop: begin dcop, cpu clock= 9.82E-01
 dcop: end dcop, cpu clock= 9.83E-01 peak memory=     397 mb tot_iter=     429
 output: ex3_2.mt0
 sweep: tran tran46   begin, stop_t=  5.00E-09 #sweeps= 101 cpu clock= 9.83E-01
 sweep: tran tran46   end, cpu clock= 9.89E-01 peak memory=     397 mb
 dcop: begin dcop, cpu clock= 9.92E-01
 dcop: end dcop, cpu clock= 9.95E-01 peak memory=     397 mb tot_iter=     438
 output: ex3_2.mt0
 sweep: tran tran47   begin, stop_t=  5.00E-09 #sweeps= 101 cpu clock= 9.98E-01
 sweep: tran tran47   end, cpu clock= 1.01E+00 peak memory=     397 mb
 dcop: begin dcop, cpu clock= 1.01E+00
 dcop: end dcop, cpu clock= 1.01E+00 peak memory=     397 mb tot_iter=     447
 output: ex3_2.mt0
 sweep: tran tran48   begin, stop_t=  5.00E-09 #sweeps= 101 cpu clock= 1.01E+00
 sweep: tran tran48   end, cpu clock= 1.02E+00 peak memory=     397 mb
 dcop: begin dcop, cpu clock= 1.02E+00
 dcop: end dcop, cpu clock= 1.02E+00 peak memory=     397 mb tot_iter=     456
 output: ex3_2.mt0
 sweep: tran tran49   begin, stop_t=  5.00E-09 #sweeps= 101 cpu clock= 1.03E+00
 sweep: tran tran49   end, cpu clock= 1.04E+00 peak memory=     397 mb
 dcop: begin dcop, cpu clock= 1.04E+00
 dcop: end dcop, cpu clock= 1.05E+00 peak memory=     397 mb tot_iter=     465
 output: ex3_2.mt0
 sweep: tran tran50   begin, stop_t=  5.00E-09 #sweeps= 101 cpu clock= 1.05E+00
 sweep: tran tran50   end, cpu clock= 1.05E+00 peak memory=     397 mb
 dcop: begin dcop, cpu clock= 1.05E+00
 dcop: end dcop, cpu clock= 1.06E+00 peak memory=     397 mb tot_iter=     474
 output: ex3_2.mt0
 sweep: tran tran51   begin, stop_t=  5.00E-09 #sweeps= 101 cpu clock= 1.06E+00
 sweep: tran tran51   end, cpu clock= 1.07E+00 peak memory=     397 mb
 dcop: begin dcop, cpu clock= 1.07E+00
 dcop: end dcop, cpu clock= 1.08E+00 peak memory=     397 mb tot_iter=     483
 output: ex3_2.mt0
 sweep: tran tran52   begin, stop_t=  5.00E-09 #sweeps= 101 cpu clock= 1.08E+00
 sweep: tran tran52   end, cpu clock= 1.08E+00 peak memory=     397 mb
 dcop: begin dcop, cpu clock= 1.08E+00
 dcop: end dcop, cpu clock= 1.09E+00 peak memory=     397 mb tot_iter=     492
 output: ex3_2.mt0
 sweep: tran tran53   begin, stop_t=  5.00E-09 #sweeps= 101 cpu clock= 1.09E+00
 sweep: tran tran53   end, cpu clock= 1.10E+00 peak memory=     397 mb
 dcop: begin dcop, cpu clock= 1.10E+00
 dcop: end dcop, cpu clock= 1.10E+00 peak memory=     397 mb tot_iter=     501
 output: ex3_2.mt0
 sweep: tran tran54   begin, stop_t=  5.00E-09 #sweeps= 101 cpu clock= 1.10E+00
 sweep: tran tran54   end, cpu clock= 1.11E+00 peak memory=     397 mb
 dcop: begin dcop, cpu clock= 1.12E+00
 dcop: end dcop, cpu clock= 1.12E+00 peak memory=     397 mb tot_iter=     510
 output: ex3_2.mt0
 sweep: tran tran55   begin, stop_t=  5.00E-09 #sweeps= 101 cpu clock= 1.12E+00
 sweep: tran tran55   end, cpu clock= 1.13E+00 peak memory=     397 mb
 dcop: begin dcop, cpu clock= 1.14E+00
 dcop: end dcop, cpu clock= 1.14E+00 peak memory=     397 mb tot_iter=     519
 output: ex3_2.mt0
 sweep: tran tran56   begin, stop_t=  5.00E-09 #sweeps= 101 cpu clock= 1.14E+00
 sweep: tran tran56   end, cpu clock= 1.14E+00 peak memory=     397 mb
 dcop: begin dcop, cpu clock= 1.14E+00
 dcop: end dcop, cpu clock= 1.15E+00 peak memory=     397 mb tot_iter=     528
 output: ex3_2.mt0
 sweep: tran tran57   begin, stop_t=  5.00E-09 #sweeps= 101 cpu clock= 1.15E+00
 sweep: tran tran57   end, cpu clock= 1.16E+00 peak memory=     397 mb
 dcop: begin dcop, cpu clock= 1.16E+00
 dcop: end dcop, cpu clock= 1.17E+00 peak memory=     397 mb tot_iter=     537
 output: ex3_2.mt0
 sweep: tran tran58   begin, stop_t=  5.00E-09 #sweeps= 101 cpu clock= 1.17E+00
 sweep: tran tran58   end, cpu clock= 1.17E+00 peak memory=     397 mb
 dcop: begin dcop, cpu clock= 1.17E+00
 dcop: end dcop, cpu clock= 1.18E+00 peak memory=     397 mb tot_iter=     546
 output: ex3_2.mt0
 sweep: tran tran59   begin, stop_t=  5.00E-09 #sweeps= 101 cpu clock= 1.18E+00
 sweep: tran tran59   end, cpu clock= 1.19E+00 peak memory=     397 mb
 dcop: begin dcop, cpu clock= 1.19E+00
 dcop: end dcop, cpu clock= 1.20E+00 peak memory=     397 mb tot_iter=     555
 output: ex3_2.mt0
 sweep: tran tran60   begin, stop_t=  5.00E-09 #sweeps= 101 cpu clock= 1.20E+00
 sweep: tran tran60   end, cpu clock= 1.20E+00 peak memory=     397 mb
 dcop: begin dcop, cpu clock= 1.20E+00
 dcop: end dcop, cpu clock= 1.21E+00 peak memory=     397 mb tot_iter=     564
 output: ex3_2.mt0
 sweep: tran tran61   begin, stop_t=  5.00E-09 #sweeps= 101 cpu clock= 1.21E+00
 sweep: tran tran61   end, cpu clock= 1.22E+00 peak memory=     397 mb
 dcop: begin dcop, cpu clock= 1.22E+00
 dcop: end dcop, cpu clock= 1.22E+00 peak memory=     397 mb tot_iter=     573
 output: ex3_2.mt0
 sweep: tran tran62   begin, stop_t=  5.00E-09 #sweeps= 101 cpu clock= 1.22E+00
 sweep: tran tran62   end, cpu clock= 1.23E+00 peak memory=     397 mb
 dcop: begin dcop, cpu clock= 1.23E+00
 dcop: end dcop, cpu clock= 1.24E+00 peak memory=     397 mb tot_iter=     582
 output: ex3_2.mt0
 sweep: tran tran63   begin, stop_t=  5.00E-09 #sweeps= 101 cpu clock= 1.24E+00
 sweep: tran tran63   end, cpu clock= 1.25E+00 peak memory=     397 mb
 dcop: begin dcop, cpu clock= 1.25E+00
 dcop: end dcop, cpu clock= 1.25E+00 peak memory=     397 mb tot_iter=     591
 output: ex3_2.mt0
 sweep: tran tran64   begin, stop_t=  5.00E-09 #sweeps= 101 cpu clock= 1.25E+00
 sweep: tran tran64   end, cpu clock= 1.26E+00 peak memory=     397 mb
 dcop: begin dcop, cpu clock= 1.26E+00
 dcop: end dcop, cpu clock= 1.26E+00 peak memory=     397 mb tot_iter=     600
 output: ex3_2.mt0
 sweep: tran tran65   begin, stop_t=  5.00E-09 #sweeps= 101 cpu clock= 1.27E+00
 sweep: tran tran65   end, cpu clock= 1.28E+00 peak memory=     397 mb
 dcop: begin dcop, cpu clock= 1.28E+00
 dcop: end dcop, cpu clock= 1.28E+00 peak memory=     397 mb tot_iter=     609
 output: ex3_2.mt0
 sweep: tran tran66   begin, stop_t=  5.00E-09 #sweeps= 101 cpu clock= 1.28E+00
 sweep: tran tran66   end, cpu clock= 1.29E+00 peak memory=     397 mb
 dcop: begin dcop, cpu clock= 1.29E+00
 dcop: end dcop, cpu clock= 1.29E+00 peak memory=     397 mb tot_iter=     618
 output: ex3_2.mt0
 sweep: tran tran67   begin, stop_t=  5.00E-09 #sweeps= 101 cpu clock= 1.29E+00
 sweep: tran tran67   end, cpu clock= 1.30E+00 peak memory=     397 mb
 dcop: begin dcop, cpu clock= 1.31E+00
 dcop: end dcop, cpu clock= 1.31E+00 peak memory=     397 mb tot_iter=     627
 output: ex3_2.mt0
 sweep: tran tran68   begin, stop_t=  5.00E-09 #sweeps= 101 cpu clock= 1.31E+00
 sweep: tran tran68   end, cpu clock= 1.31E+00 peak memory=     397 mb
 dcop: begin dcop, cpu clock= 1.32E+00
 dcop: end dcop, cpu clock= 1.32E+00 peak memory=     397 mb tot_iter=     636
 output: ex3_2.mt0
 sweep: tran tran69   begin, stop_t=  5.00E-09 #sweeps= 101 cpu clock= 1.32E+00
 sweep: tran tran69   end, cpu clock= 1.33E+00 peak memory=     397 mb
 dcop: begin dcop, cpu clock= 1.34E+00
 dcop: end dcop, cpu clock= 1.34E+00 peak memory=     397 mb tot_iter=     645
 output: ex3_2.mt0
 sweep: tran tran70   begin, stop_t=  5.00E-09 #sweeps= 101 cpu clock= 1.34E+00
 sweep: tran tran70   end, cpu clock= 1.34E+00 peak memory=     397 mb
 dcop: begin dcop, cpu clock= 1.35E+00
 dcop: end dcop, cpu clock= 1.35E+00 peak memory=     397 mb tot_iter=     654
 output: ex3_2.mt0
 sweep: tran tran71   begin, stop_t=  5.00E-09 #sweeps= 101 cpu clock= 1.36E+00
 sweep: tran tran71   end, cpu clock= 1.37E+00 peak memory=     397 mb
 dcop: begin dcop, cpu clock= 1.37E+00
 dcop: end dcop, cpu clock= 1.37E+00 peak memory=     397 mb tot_iter=     663
 output: ex3_2.mt0
 sweep: tran tran72   begin, stop_t=  5.00E-09 #sweeps= 101 cpu clock= 1.37E+00
 sweep: tran tran72   end, cpu clock= 1.38E+00 peak memory=     397 mb
 dcop: begin dcop, cpu clock= 1.38E+00
 dcop: end dcop, cpu clock= 1.38E+00 peak memory=     397 mb tot_iter=     672
 output: ex3_2.mt0
 sweep: tran tran73   begin, stop_t=  5.00E-09 #sweeps= 101 cpu clock= 1.39E+00
 sweep: tran tran73   end, cpu clock= 1.40E+00 peak memory=     397 mb
 dcop: begin dcop, cpu clock= 1.40E+00
 dcop: end dcop, cpu clock= 1.40E+00 peak memory=     397 mb tot_iter=     681
 output: ex3_2.mt0
 sweep: tran tran74   begin, stop_t=  5.00E-09 #sweeps= 101 cpu clock= 1.40E+00
 sweep: tran tran74   end, cpu clock= 1.41E+00 peak memory=     397 mb
 dcop: begin dcop, cpu clock= 1.41E+00
 dcop: end dcop, cpu clock= 1.41E+00 peak memory=     397 mb tot_iter=     690
 output: ex3_2.mt0
 sweep: tran tran75   begin, stop_t=  5.00E-09 #sweeps= 101 cpu clock= 1.41E+00
 sweep: tran tran75   end, cpu clock= 1.42E+00 peak memory=     397 mb
 dcop: begin dcop, cpu clock= 1.42E+00
 dcop: end dcop, cpu clock= 1.42E+00 peak memory=     397 mb tot_iter=     699
 output: ex3_2.mt0
 sweep: tran tran76   begin, stop_t=  5.00E-09 #sweeps= 101 cpu clock= 1.42E+00
 sweep: tran tran76   end, cpu clock= 1.43E+00 peak memory=     397 mb
 dcop: begin dcop, cpu clock= 1.43E+00
 dcop: end dcop, cpu clock= 1.44E+00 peak memory=     397 mb tot_iter=     708
 output: ex3_2.mt0
 sweep: tran tran77   begin, stop_t=  5.00E-09 #sweeps= 101 cpu clock= 1.44E+00
 sweep: tran tran77   end, cpu clock= 1.45E+00 peak memory=     397 mb
 dcop: begin dcop, cpu clock= 1.45E+00
 dcop: end dcop, cpu clock= 1.45E+00 peak memory=     397 mb tot_iter=     717
 output: ex3_2.mt0
 sweep: tran tran78   begin, stop_t=  5.00E-09 #sweeps= 101 cpu clock= 1.45E+00
 sweep: tran tran78   end, cpu clock= 1.46E+00 peak memory=     397 mb
 dcop: begin dcop, cpu clock= 1.46E+00
 dcop: end dcop, cpu clock= 1.47E+00 peak memory=     397 mb tot_iter=     726
 output: ex3_2.mt0
 sweep: tran tran79   begin, stop_t=  5.00E-09 #sweeps= 101 cpu clock= 1.47E+00
 sweep: tran tran79   end, cpu clock= 1.48E+00 peak memory=     397 mb
 dcop: begin dcop, cpu clock= 1.48E+00
 dcop: end dcop, cpu clock= 1.48E+00 peak memory=     397 mb tot_iter=     735
 output: ex3_2.mt0
 sweep: tran tran80   begin, stop_t=  5.00E-09 #sweeps= 101 cpu clock= 1.48E+00
 sweep: tran tran80   end, cpu clock= 1.49E+00 peak memory=     397 mb
 dcop: begin dcop, cpu clock= 1.49E+00
 dcop: end dcop, cpu clock= 1.49E+00 peak memory=     397 mb tot_iter=     744
 output: ex3_2.mt0
 sweep: tran tran81   begin, stop_t=  5.00E-09 #sweeps= 101 cpu clock= 1.49E+00
 sweep: tran tran81   end, cpu clock= 1.50E+00 peak memory=     397 mb
 dcop: begin dcop, cpu clock= 1.50E+00
 dcop: end dcop, cpu clock= 1.51E+00 peak memory=     397 mb tot_iter=     753
 output: ex3_2.mt0
 sweep: tran tran82   begin, stop_t=  5.00E-09 #sweeps= 101 cpu clock= 1.51E+00
 sweep: tran tran82   end, cpu clock= 1.51E+00 peak memory=     397 mb
 dcop: begin dcop, cpu clock= 1.51E+00
 dcop: end dcop, cpu clock= 1.52E+00 peak memory=     397 mb tot_iter=     762
 output: ex3_2.mt0
 sweep: tran tran83   begin, stop_t=  5.00E-09 #sweeps= 101 cpu clock= 1.52E+00
 sweep: tran tran83   end, cpu clock= 1.53E+00 peak memory=     397 mb
 dcop: begin dcop, cpu clock= 1.53E+00
 dcop: end dcop, cpu clock= 1.53E+00 peak memory=     397 mb tot_iter=     771
 output: ex3_2.mt0
 sweep: tran tran84   begin, stop_t=  5.00E-09 #sweeps= 101 cpu clock= 1.53E+00
 sweep: tran tran84   end, cpu clock= 1.54E+00 peak memory=     397 mb
 dcop: begin dcop, cpu clock= 1.54E+00
 dcop: end dcop, cpu clock= 1.54E+00 peak memory=     397 mb tot_iter=     780
 output: ex3_2.mt0
 sweep: tran tran85   begin, stop_t=  5.00E-09 #sweeps= 101 cpu clock= 1.54E+00
 sweep: tran tran85   end, cpu clock= 1.55E+00 peak memory=     397 mb
 dcop: begin dcop, cpu clock= 1.55E+00
 dcop: end dcop, cpu clock= 1.55E+00 peak memory=     397 mb tot_iter=     789
 output: ex3_2.mt0
 sweep: tran tran86   begin, stop_t=  5.00E-09 #sweeps= 101 cpu clock= 1.55E+00
 sweep: tran tran86   end, cpu clock= 1.56E+00 peak memory=     397 mb
 dcop: begin dcop, cpu clock= 1.56E+00
 dcop: end dcop, cpu clock= 1.56E+00 peak memory=     397 mb tot_iter=     798
 output: ex3_2.mt0
 sweep: tran tran87   begin, stop_t=  5.00E-09 #sweeps= 101 cpu clock= 1.57E+00
 sweep: tran tran87   end, cpu clock= 1.58E+00 peak memory=     397 mb
 dcop: begin dcop, cpu clock= 1.58E+00
 dcop: end dcop, cpu clock= 1.58E+00 peak memory=     397 mb tot_iter=     807
 output: ex3_2.mt0
 sweep: tran tran88   begin, stop_t=  5.00E-09 #sweeps= 101 cpu clock= 1.58E+00
 sweep: tran tran88   end, cpu clock= 1.59E+00 peak memory=     397 mb
 dcop: begin dcop, cpu clock= 1.59E+00
 dcop: end dcop, cpu clock= 1.60E+00 peak memory=     397 mb tot_iter=     816
 output: ex3_2.mt0
 sweep: tran tran89   begin, stop_t=  5.00E-09 #sweeps= 101 cpu clock= 1.60E+00
 sweep: tran tran89   end, cpu clock= 1.60E+00 peak memory=     397 mb
 dcop: begin dcop, cpu clock= 1.60E+00
 dcop: end dcop, cpu clock= 1.61E+00 peak memory=     397 mb tot_iter=     825
 output: ex3_2.mt0
 sweep: tran tran90   begin, stop_t=  5.00E-09 #sweeps= 101 cpu clock= 1.61E+00
 sweep: tran tran90   end, cpu clock= 1.62E+00 peak memory=     397 mb
 dcop: begin dcop, cpu clock= 1.62E+00
 dcop: end dcop, cpu clock= 1.62E+00 peak memory=     397 mb tot_iter=     834
 output: ex3_2.mt0
 sweep: tran tran91   begin, stop_t=  5.00E-09 #sweeps= 101 cpu clock= 1.62E+00
 sweep: tran tran91   end, cpu clock= 1.63E+00 peak memory=     397 mb
 dcop: begin dcop, cpu clock= 1.63E+00
 dcop: end dcop, cpu clock= 1.63E+00 peak memory=     397 mb tot_iter=     843
 output: ex3_2.mt0
 sweep: tran tran92   begin, stop_t=  5.00E-09 #sweeps= 101 cpu clock= 1.63E+00
 sweep: tran tran92   end, cpu clock= 1.64E+00 peak memory=     397 mb
 dcop: begin dcop, cpu clock= 1.64E+00
 dcop: end dcop, cpu clock= 1.64E+00 peak memory=     397 mb tot_iter=     852
 output: ex3_2.mt0
 sweep: tran tran93   begin, stop_t=  5.00E-09 #sweeps= 101 cpu clock= 1.64E+00
 sweep: tran tran93   end, cpu clock= 1.65E+00 peak memory=     397 mb
 dcop: begin dcop, cpu clock= 1.65E+00
 dcop: end dcop, cpu clock= 1.66E+00 peak memory=     397 mb tot_iter=     861
 output: ex3_2.mt0
 sweep: tran tran94   begin, stop_t=  5.00E-09 #sweeps= 101 cpu clock= 1.66E+00
 sweep: tran tran94   end, cpu clock= 1.66E+00 peak memory=     397 mb
 dcop: begin dcop, cpu clock= 1.67E+00
 dcop: end dcop, cpu clock= 1.67E+00 peak memory=     397 mb tot_iter=     870
 output: ex3_2.mt0
 sweep: tran tran95   begin, stop_t=  5.00E-09 #sweeps= 101 cpu clock= 1.67E+00
 sweep: tran tran95   end, cpu clock= 1.67E+00 peak memory=     397 mb
 dcop: begin dcop, cpu clock= 1.68E+00
 dcop: end dcop, cpu clock= 1.68E+00 peak memory=     397 mb tot_iter=     879
 output: ex3_2.mt0
 sweep: tran tran96   begin, stop_t=  5.00E-09 #sweeps= 101 cpu clock= 1.68E+00
 sweep: tran tran96   end, cpu clock= 1.69E+00 peak memory=     397 mb
 dcop: begin dcop, cpu clock= 1.69E+00
 dcop: end dcop, cpu clock= 1.70E+00 peak memory=     397 mb tot_iter=     888
 output: ex3_2.mt0
 sweep: tran tran97   begin, stop_t=  5.00E-09 #sweeps= 101 cpu clock= 1.70E+00
 sweep: tran tran97   end, cpu clock= 1.70E+00 peak memory=     397 mb
 dcop: begin dcop, cpu clock= 1.70E+00
 dcop: end dcop, cpu clock= 1.71E+00 peak memory=     397 mb tot_iter=     897
 output: ex3_2.mt0
 sweep: tran tran98   begin, stop_t=  5.00E-09 #sweeps= 101 cpu clock= 1.71E+00
 sweep: tran tran98   end, cpu clock= 1.72E+00 peak memory=     397 mb
 dcop: begin dcop, cpu clock= 1.72E+00
 dcop: end dcop, cpu clock= 1.72E+00 peak memory=     397 mb tot_iter=     906
 output: ex3_2.mt0
 sweep: tran tran99   begin, stop_t=  5.00E-09 #sweeps= 101 cpu clock= 1.72E+00
 sweep: tran tran99   end, cpu clock= 1.73E+00 peak memory=     397 mb
 dcop: begin dcop, cpu clock= 1.74E+00
 dcop: end dcop, cpu clock= 1.74E+00 peak memory=     397 mb tot_iter=     915
 output: ex3_2.mt0
 sweep: tran tran100  begin, stop_t=  5.00E-09 #sweeps= 101 cpu clock= 1.74E+00
 sweep: tran tran100  end, cpu clock= 1.75E+00 peak memory=     397 mb
 dcop: begin dcop, cpu clock= 1.75E+00
 dcop: end dcop, cpu clock= 1.75E+00 peak memory=     397 mb tot_iter=     924
 output: ex3_2.mt0
 sweep: tran tran101  begin, stop_t=  5.00E-09 #sweeps= 101 cpu clock= 1.75E+00
 sweep: tran tran101  end, cpu clock= 1.76E+00 peak memory=     397 mb
 dcop: begin dcop, cpu clock= 1.76E+00
 dcop: end dcop, cpu clock= 1.76E+00 peak memory=     397 mb tot_iter=     933
 output: ex3_2.mt0
 sweep: tran tran102  begin, stop_t=  5.00E-09 #sweeps= 101 cpu clock= 1.76E+00
 sweep: tran tran102  end, cpu clock= 1.77E+00 peak memory=     397 mb
 dcop: begin dcop, cpu clock= 1.77E+00
 dcop: end dcop, cpu clock= 1.78E+00 peak memory=     397 mb tot_iter=     942
 output: ex3_2.mt0
 sweep: tran tran103  begin, stop_t=  5.00E-09 #sweeps= 101 cpu clock= 1.78E+00
 sweep: tran tran103  end, cpu clock= 1.78E+00 peak memory=     397 mb
 dcop: begin dcop, cpu clock= 1.79E+00
 dcop: end dcop, cpu clock= 1.79E+00 peak memory=     397 mb tot_iter=     951
 output: ex3_2.mt0
 sweep: tran tran104  begin, stop_t=  5.00E-09 #sweeps= 101 cpu clock= 1.79E+00
 sweep: tran tran104  end, cpu clock= 1.80E+00 peak memory=     397 mb
 dcop: begin dcop, cpu clock= 1.80E+00
 dcop: end dcop, cpu clock= 1.80E+00 peak memory=     397 mb tot_iter=     960
 output: ex3_2.mt0
 sweep: tran tran105  begin, stop_t=  5.00E-09 #sweeps= 101 cpu clock= 1.80E+00
 sweep: tran tran105  end, cpu clock= 1.81E+00 peak memory=     397 mb
 dcop: begin dcop, cpu clock= 1.81E+00
 dcop: end dcop, cpu clock= 1.81E+00 peak memory=     397 mb tot_iter=     969
 output: ex3_2.mt0
 sweep: tran tran106  begin, stop_t=  5.00E-09 #sweeps= 101 cpu clock= 1.81E+00
 sweep: tran tran106  end, cpu clock= 1.82E+00 peak memory=     397 mb
 dcop: begin dcop, cpu clock= 1.82E+00
 dcop: end dcop, cpu clock= 1.83E+00 peak memory=     397 mb tot_iter=     978
 output: ex3_2.mt0
 sweep: tran tran107  begin, stop_t=  5.00E-09 #sweeps= 101 cpu clock= 1.83E+00
 sweep: tran tran107  end, cpu clock= 1.84E+00 peak memory=     397 mb
 dcop: begin dcop, cpu clock= 1.84E+00
 dcop: end dcop, cpu clock= 1.84E+00 peak memory=     397 mb tot_iter=     987
 output: ex3_2.mt0
 sweep: tran tran108  begin, stop_t=  5.00E-09 #sweeps= 101 cpu clock= 1.84E+00
 sweep: tran tran108  end, cpu clock= 1.85E+00 peak memory=     397 mb
 dcop: begin dcop, cpu clock= 1.85E+00
 dcop: end dcop, cpu clock= 1.86E+00 peak memory=     397 mb tot_iter=     996
 output: ex3_2.mt0
 sweep: tran tran109  begin, stop_t=  5.00E-09 #sweeps= 101 cpu clock= 1.86E+00
 sweep: tran tran109  end, cpu clock= 1.87E+00 peak memory=     397 mb
 dcop: begin dcop, cpu clock= 1.87E+00
 dcop: end dcop, cpu clock= 1.87E+00 peak memory=     397 mb tot_iter=    1005
 output: ex3_2.mt0
 sweep: tran tran110  begin, stop_t=  5.00E-09 #sweeps= 101 cpu clock= 1.87E+00
 sweep: tran tran110  end, cpu clock= 1.88E+00 peak memory=     397 mb
 dcop: begin dcop, cpu clock= 1.88E+00
 dcop: end dcop, cpu clock= 1.89E+00 peak memory=     397 mb tot_iter=    1014
 output: ex3_2.mt0
 sweep: tran tran111  begin, stop_t=  5.00E-09 #sweeps= 101 cpu clock= 1.89E+00
 sweep: tran tran111  end, cpu clock= 1.90E+00 peak memory=     397 mb
 dcop: begin dcop, cpu clock= 1.90E+00
 dcop: end dcop, cpu clock= 1.90E+00 peak memory=     397 mb tot_iter=    1023
 output: ex3_2.mt0
 sweep: tran tran112  begin, stop_t=  5.00E-09 #sweeps= 101 cpu clock= 1.90E+00
 sweep: tran tran112  end, cpu clock= 1.91E+00 peak memory=     397 mb
 dcop: begin dcop, cpu clock= 1.91E+00
 dcop: end dcop, cpu clock= 1.91E+00 peak memory=     397 mb tot_iter=    1032
 output: ex3_2.mt0
 sweep: tran tran113  begin, stop_t=  5.00E-09 #sweeps= 101 cpu clock= 1.91E+00
 sweep: tran tran113  end, cpu clock= 1.92E+00 peak memory=     397 mb
 dcop: begin dcop, cpu clock= 1.93E+00
 dcop: end dcop, cpu clock= 1.93E+00 peak memory=     397 mb tot_iter=    1041
 output: ex3_2.mt0
 sweep: tran tran114  begin, stop_t=  5.00E-09 #sweeps= 101 cpu clock= 1.93E+00
 sweep: tran tran114  end, cpu clock= 1.94E+00 peak memory=     397 mb
 dcop: begin dcop, cpu clock= 1.94E+00
 dcop: end dcop, cpu clock= 1.94E+00 peak memory=     397 mb tot_iter=    1050
 output: ex3_2.mt0
 sweep: tran tran115  begin, stop_t=  5.00E-09 #sweeps= 101 cpu clock= 1.94E+00
 sweep: tran tran115  end, cpu clock= 1.95E+00 peak memory=     397 mb
 dcop: begin dcop, cpu clock= 1.95E+00
 dcop: end dcop, cpu clock= 1.96E+00 peak memory=     397 mb tot_iter=    1059
 output: ex3_2.mt0
 sweep: tran tran116  begin, stop_t=  5.00E-09 #sweeps= 101 cpu clock= 1.96E+00
 sweep: tran tran116  end, cpu clock= 1.96E+00 peak memory=     397 mb
 dcop: begin dcop, cpu clock= 1.96E+00
 dcop: end dcop, cpu clock= 1.97E+00 peak memory=     397 mb tot_iter=    1068
 output: ex3_2.mt0
 sweep: tran tran117  begin, stop_t=  5.00E-09 #sweeps= 101 cpu clock= 1.97E+00
 sweep: tran tran117  end, cpu clock= 1.98E+00 peak memory=     397 mb
 dcop: begin dcop, cpu clock= 1.98E+00
 dcop: end dcop, cpu clock= 1.99E+00 peak memory=     397 mb tot_iter=    1077
 output: ex3_2.mt0
 sweep: tran tran118  begin, stop_t=  5.00E-09 #sweeps= 101 cpu clock= 1.99E+00
 sweep: tran tran118  end, cpu clock= 1.99E+00 peak memory=     397 mb
 dcop: begin dcop, cpu clock= 1.99E+00
 dcop: end dcop, cpu clock= 2.00E+00 peak memory=     397 mb tot_iter=    1086
 output: ex3_2.mt0
 sweep: tran tran119  begin, stop_t=  5.00E-09 #sweeps= 101 cpu clock= 2.00E+00
 sweep: tran tran119  end, cpu clock= 2.01E+00 peak memory=     397 mb
 dcop: begin dcop, cpu clock= 2.01E+00
 dcop: end dcop, cpu clock= 2.01E+00 peak memory=     397 mb tot_iter=    1095
 output: ex3_2.mt0
 sweep: tran tran120  begin, stop_t=  5.00E-09 #sweeps= 101 cpu clock= 2.01E+00
 sweep: tran tran120  end, cpu clock= 2.02E+00 peak memory=     397 mb
 dcop: begin dcop, cpu clock= 2.02E+00
 dcop: end dcop, cpu clock= 2.03E+00 peak memory=     397 mb tot_iter=    1104
 output: ex3_2.mt0
 sweep: tran tran121  begin, stop_t=  5.00E-09 #sweeps= 101 cpu clock= 2.03E+00
 sweep: tran tran121  end, cpu clock= 2.03E+00 peak memory=     397 mb
 dcop: begin dcop, cpu clock= 2.03E+00
 dcop: end dcop, cpu clock= 2.04E+00 peak memory=     397 mb tot_iter=    1113
 output: ex3_2.mt0
 sweep: tran tran122  begin, stop_t=  5.00E-09 #sweeps= 101 cpu clock= 2.04E+00
 sweep: tran tran122  end, cpu clock= 2.05E+00 peak memory=     397 mb
 dcop: begin dcop, cpu clock= 2.05E+00
 dcop: end dcop, cpu clock= 2.05E+00 peak memory=     397 mb tot_iter=    1122
 output: ex3_2.mt0
 sweep: tran tran123  begin, stop_t=  5.00E-09 #sweeps= 101 cpu clock= 2.05E+00
 sweep: tran tran123  end, cpu clock= 2.06E+00 peak memory=     397 mb
 dcop: begin dcop, cpu clock= 2.06E+00
 dcop: end dcop, cpu clock= 2.06E+00 peak memory=     397 mb tot_iter=    1131
 output: ex3_2.mt0
 sweep: tran tran124  begin, stop_t=  5.00E-09 #sweeps= 101 cpu clock= 2.06E+00
 sweep: tran tran124  end, cpu clock= 2.07E+00 peak memory=     397 mb
 dcop: begin dcop, cpu clock= 2.08E+00
 dcop: end dcop, cpu clock= 2.08E+00 peak memory=     397 mb tot_iter=    1140
 output: ex3_2.mt0
 sweep: tran tran125  begin, stop_t=  5.00E-09 #sweeps= 101 cpu clock= 2.08E+00
 sweep: tran tran125  end, cpu clock= 2.08E+00 peak memory=     397 mb
 dcop: begin dcop, cpu clock= 2.08E+00
 dcop: end dcop, cpu clock= 2.09E+00 peak memory=     397 mb tot_iter=    1149
 output: ex3_2.mt0
 sweep: tran tran126  begin, stop_t=  5.00E-09 #sweeps= 101 cpu clock= 2.09E+00
 sweep: tran tran126  end, cpu clock= 2.10E+00 peak memory=     397 mb
 dcop: begin dcop, cpu clock= 2.10E+00
 dcop: end dcop, cpu clock= 2.10E+00 peak memory=     397 mb tot_iter=    1158
 output: ex3_2.mt0
 sweep: tran tran127  begin, stop_t=  5.00E-09 #sweeps= 101 cpu clock= 2.10E+00
 sweep: tran tran127  end, cpu clock= 2.11E+00 peak memory=     397 mb
 dcop: begin dcop, cpu clock= 2.11E+00
 dcop: end dcop, cpu clock= 2.11E+00 peak memory=     397 mb tot_iter=    1167
 output: ex3_2.mt0
 sweep: tran tran128  begin, stop_t=  5.00E-09 #sweeps= 101 cpu clock= 2.11E+00
 sweep: tran tran128  end, cpu clock= 2.12E+00 peak memory=     397 mb
 dcop: begin dcop, cpu clock= 2.12E+00
 dcop: end dcop, cpu clock= 2.12E+00 peak memory=     397 mb tot_iter=    1176
 output: ex3_2.mt0
 sweep: tran tran129  begin, stop_t=  5.00E-09 #sweeps= 101 cpu clock= 2.13E+00
 sweep: tran tran129  end, cpu clock= 2.13E+00 peak memory=     397 mb
 dcop: begin dcop, cpu clock= 2.14E+00
 dcop: end dcop, cpu clock= 2.14E+00 peak memory=     397 mb tot_iter=    1185
 output: ex3_2.mt0
 sweep: tran tran130  begin, stop_t=  5.00E-09 #sweeps= 101 cpu clock= 2.14E+00
 sweep: tran tran130  end, cpu clock= 2.14E+00 peak memory=     397 mb
 dcop: begin dcop, cpu clock= 2.15E+00
 dcop: end dcop, cpu clock= 2.15E+00 peak memory=     397 mb tot_iter=    1194
 output: ex3_2.mt0
 sweep: tran tran131  begin, stop_t=  5.00E-09 #sweeps= 101 cpu clock= 2.15E+00
 sweep: tran tran131  end, cpu clock= 2.16E+00 peak memory=     397 mb
 dcop: begin dcop, cpu clock= 2.16E+00
 dcop: end dcop, cpu clock= 2.16E+00 peak memory=     397 mb tot_iter=    1203
 output: ex3_2.mt0
 sweep: tran tran132  begin, stop_t=  5.00E-09 #sweeps= 101 cpu clock= 2.16E+00
 sweep: tran tran132  end, cpu clock= 2.17E+00 peak memory=     397 mb
 dcop: begin dcop, cpu clock= 2.17E+00
 dcop: end dcop, cpu clock= 2.18E+00 peak memory=     397 mb tot_iter=    1212
 output: ex3_2.mt0
 sweep: tran tran133  begin, stop_t=  5.00E-09 #sweeps= 101 cpu clock= 2.18E+00
 sweep: tran tran133  end, cpu clock= 2.18E+00 peak memory=     397 mb
 dcop: begin dcop, cpu clock= 2.18E+00
 dcop: end dcop, cpu clock= 2.19E+00 peak memory=     397 mb tot_iter=    1221
 output: ex3_2.mt0
 sweep: tran tran134  begin, stop_t=  5.00E-09 #sweeps= 101 cpu clock= 2.19E+00
 sweep: tran tran134  end, cpu clock= 2.20E+00 peak memory=     397 mb
 dcop: begin dcop, cpu clock= 2.20E+00
 dcop: end dcop, cpu clock= 2.20E+00 peak memory=     397 mb tot_iter=    1230
 output: ex3_2.mt0
 sweep: tran tran135  begin, stop_t=  5.00E-09 #sweeps= 101 cpu clock= 2.20E+00
 sweep: tran tran135  end, cpu clock= 2.21E+00 peak memory=     397 mb
 dcop: begin dcop, cpu clock= 2.21E+00
 dcop: end dcop, cpu clock= 2.21E+00 peak memory=     397 mb tot_iter=    1239
 output: ex3_2.mt0
 sweep: tran tran136  begin, stop_t=  5.00E-09 #sweeps= 101 cpu clock= 2.21E+00
 sweep: tran tran136  end, cpu clock= 2.22E+00 peak memory=     397 mb
 dcop: begin dcop, cpu clock= 2.22E+00
 dcop: end dcop, cpu clock= 2.22E+00 peak memory=     397 mb tot_iter=    1248
 output: ex3_2.mt0
 sweep: tran tran137  begin, stop_t=  5.00E-09 #sweeps= 101 cpu clock= 2.23E+00
 sweep: tran tran137  end, cpu clock= 2.23E+00 peak memory=     397 mb
 dcop: begin dcop, cpu clock= 2.23E+00
 dcop: end dcop, cpu clock= 2.24E+00 peak memory=     397 mb tot_iter=    1257
 output: ex3_2.mt0
 sweep: tran tran138  begin, stop_t=  5.00E-09 #sweeps= 101 cpu clock= 2.24E+00
 sweep: tran tran138  end, cpu clock= 2.24E+00 peak memory=     397 mb
 dcop: begin dcop, cpu clock= 2.25E+00
 dcop: end dcop, cpu clock= 2.25E+00 peak memory=     397 mb tot_iter=    1266
 output: ex3_2.mt0
 sweep: tran tran139  begin, stop_t=  5.00E-09 #sweeps= 101 cpu clock= 2.25E+00
 sweep: tran tran139  end, cpu clock= 2.26E+00 peak memory=     397 mb
 dcop: begin dcop, cpu clock= 2.26E+00
 dcop: end dcop, cpu clock= 2.26E+00 peak memory=     397 mb tot_iter=    1275
 output: ex3_2.mt0
 sweep: tran tran140  begin, stop_t=  5.00E-09 #sweeps= 101 cpu clock= 2.26E+00
 sweep: tran tran140  end, cpu clock= 2.27E+00 peak memory=     397 mb
 dcop: begin dcop, cpu clock= 2.27E+00
 dcop: end dcop, cpu clock= 2.27E+00 peak memory=     397 mb tot_iter=    1284
 output: ex3_2.mt0
 sweep: tran tran141  begin, stop_t=  5.00E-09 #sweeps= 101 cpu clock= 2.27E+00
 sweep: tran tran141  end, cpu clock= 2.28E+00 peak memory=     397 mb
 dcop: begin dcop, cpu clock= 2.28E+00
 dcop: end dcop, cpu clock= 2.29E+00 peak memory=     397 mb tot_iter=    1293
 output: ex3_2.mt0
 sweep: tran tran142  begin, stop_t=  5.00E-09 #sweeps= 101 cpu clock= 2.29E+00
 sweep: tran tran142  end, cpu clock= 2.30E+00 peak memory=     397 mb
 dcop: begin dcop, cpu clock= 2.30E+00
 dcop: end dcop, cpu clock= 2.30E+00 peak memory=     397 mb tot_iter=    1302
 output: ex3_2.mt0
 sweep: tran tran143  begin, stop_t=  5.00E-09 #sweeps= 101 cpu clock= 2.31E+00
 sweep: tran tran143  end, cpu clock= 2.31E+00 peak memory=     397 mb
 dcop: begin dcop, cpu clock= 2.31E+00
 dcop: end dcop, cpu clock= 2.32E+00 peak memory=     397 mb tot_iter=    1311
 output: ex3_2.mt0
 sweep: tran tran144  begin, stop_t=  5.00E-09 #sweeps= 101 cpu clock= 2.32E+00
 sweep: tran tran144  end, cpu clock= 2.33E+00 peak memory=     397 mb
 dcop: begin dcop, cpu clock= 2.33E+00
 dcop: end dcop, cpu clock= 2.33E+00 peak memory=     397 mb tot_iter=    1320
 output: ex3_2.mt0
 sweep: tran tran145  begin, stop_t=  5.00E-09 #sweeps= 101 cpu clock= 2.33E+00
 sweep: tran tran145  end, cpu clock= 2.34E+00 peak memory=     397 mb
 dcop: begin dcop, cpu clock= 2.34E+00
 dcop: end dcop, cpu clock= 2.35E+00 peak memory=     397 mb tot_iter=    1329
 output: ex3_2.mt0
 sweep: tran tran146  begin, stop_t=  5.00E-09 #sweeps= 101 cpu clock= 2.35E+00
 sweep: tran tran146  end, cpu clock= 2.35E+00 peak memory=     397 mb
 dcop: begin dcop, cpu clock= 2.36E+00
 dcop: end dcop, cpu clock= 2.36E+00 peak memory=     397 mb tot_iter=    1338
 output: ex3_2.mt0
 sweep: tran tran147  begin, stop_t=  5.00E-09 #sweeps= 101 cpu clock= 2.36E+00
 sweep: tran tran147  end, cpu clock= 2.37E+00 peak memory=     397 mb
 dcop: begin dcop, cpu clock= 2.37E+00
 dcop: end dcop, cpu clock= 2.37E+00 peak memory=     397 mb tot_iter=    1347
 output: ex3_2.mt0
 sweep: tran tran148  begin, stop_t=  5.00E-09 #sweeps= 101 cpu clock= 2.37E+00
 sweep: tran tran148  end, cpu clock= 2.38E+00 peak memory=     397 mb
 dcop: begin dcop, cpu clock= 2.38E+00
 dcop: end dcop, cpu clock= 2.38E+00 peak memory=     397 mb tot_iter=    1356
 output: ex3_2.mt0
 sweep: tran tran149  begin, stop_t=  5.00E-09 #sweeps= 101 cpu clock= 2.38E+00
 sweep: tran tran149  end, cpu clock= 2.40E+00 peak memory=     397 mb
 dcop: begin dcop, cpu clock= 2.40E+00
 dcop: end dcop, cpu clock= 2.40E+00 peak memory=     397 mb tot_iter=    1365
 output: ex3_2.mt0
 sweep: tran tran150  begin, stop_t=  5.00E-09 #sweeps= 101 cpu clock= 2.40E+00
 sweep: tran tran150  end, cpu clock= 2.41E+00 peak memory=     397 mb
 dcop: begin dcop, cpu clock= 2.41E+00
 dcop: end dcop, cpu clock= 2.41E+00 peak memory=     397 mb tot_iter=    1374
 output: ex3_2.mt0
 sweep: tran tran151  begin, stop_t=  5.00E-09 #sweeps= 101 cpu clock= 2.41E+00
 sweep: tran tran151  end, cpu clock= 2.42E+00 peak memory=     397 mb
 dcop: begin dcop, cpu clock= 2.42E+00
 dcop: end dcop, cpu clock= 2.42E+00 peak memory=     397 mb tot_iter=    1383
 output: ex3_2.mt0
 sweep: tran tran152  begin, stop_t=  5.00E-09 #sweeps= 101 cpu clock= 2.42E+00
 sweep: tran tran152  end, cpu clock= 2.43E+00 peak memory=     397 mb
 dcop: begin dcop, cpu clock= 2.43E+00
 dcop: end dcop, cpu clock= 2.43E+00 peak memory=     397 mb tot_iter=    1392
 output: ex3_2.mt0
 sweep: tran tran153  begin, stop_t=  5.00E-09 #sweeps= 101 cpu clock= 2.43E+00
 sweep: tran tran153  end, cpu clock= 2.44E+00 peak memory=     397 mb
 dcop: begin dcop, cpu clock= 2.44E+00
 dcop: end dcop, cpu clock= 2.45E+00 peak memory=     397 mb tot_iter=    1401
 output: ex3_2.mt0
 sweep: tran tran154  begin, stop_t=  5.00E-09 #sweeps= 101 cpu clock= 2.45E+00
 sweep: tran tran154  end, cpu clock= 2.46E+00 peak memory=     397 mb
 dcop: begin dcop, cpu clock= 2.46E+00
 dcop: end dcop, cpu clock= 2.46E+00 peak memory=     397 mb tot_iter=    1410
 output: ex3_2.mt0
 sweep: tran tran155  begin, stop_t=  5.00E-09 #sweeps= 101 cpu clock= 2.46E+00
 sweep: tran tran155  end, cpu clock= 2.47E+00 peak memory=     397 mb
 dcop: begin dcop, cpu clock= 2.47E+00
 dcop: end dcop, cpu clock= 2.47E+00 peak memory=     397 mb tot_iter=    1419
 output: ex3_2.mt0
 sweep: tran tran156  begin, stop_t=  5.00E-09 #sweeps= 101 cpu clock= 2.48E+00
 sweep: tran tran156  end, cpu clock= 2.49E+00 peak memory=     397 mb
 dcop: begin dcop, cpu clock= 2.49E+00
 dcop: end dcop, cpu clock= 2.49E+00 peak memory=     397 mb tot_iter=    1428
 output: ex3_2.mt0
 sweep: tran tran157  begin, stop_t=  5.00E-09 #sweeps= 101 cpu clock= 2.49E+00
 sweep: tran tran157  end, cpu clock= 2.50E+00 peak memory=     397 mb
 dcop: begin dcop, cpu clock= 2.50E+00
 dcop: end dcop, cpu clock= 2.50E+00 peak memory=     397 mb tot_iter=    1437
 output: ex3_2.mt0
 sweep: tran tran158  begin, stop_t=  5.00E-09 #sweeps= 101 cpu clock= 2.50E+00
 sweep: tran tran158  end, cpu clock= 2.52E+00 peak memory=     397 mb
 dcop: begin dcop, cpu clock= 2.52E+00
 dcop: end dcop, cpu clock= 2.52E+00 peak memory=     397 mb tot_iter=    1446
 output: ex3_2.mt0
 sweep: tran tran159  begin, stop_t=  5.00E-09 #sweeps= 101 cpu clock= 2.52E+00
 sweep: tran tran159  end, cpu clock= 2.53E+00 peak memory=     397 mb
 dcop: begin dcop, cpu clock= 2.53E+00
 dcop: end dcop, cpu clock= 2.53E+00 peak memory=     397 mb tot_iter=    1455
 output: ex3_2.mt0
 sweep: tran tran160  begin, stop_t=  5.00E-09 #sweeps= 101 cpu clock= 2.53E+00
 sweep: tran tran160  end, cpu clock= 2.54E+00 peak memory=     397 mb
 dcop: begin dcop, cpu clock= 2.55E+00
 dcop: end dcop, cpu clock= 2.55E+00 peak memory=     397 mb tot_iter=    1464
 output: ex3_2.mt0
 sweep: tran tran161  begin, stop_t=  5.00E-09 #sweeps= 101 cpu clock= 2.55E+00
 sweep: tran tran161  end, cpu clock= 2.56E+00 peak memory=     397 mb
 dcop: begin dcop, cpu clock= 2.56E+00
 dcop: end dcop, cpu clock= 2.56E+00 peak memory=     397 mb tot_iter=    1473
 output: ex3_2.mt0
 sweep: tran tran162  begin, stop_t=  5.00E-09 #sweeps= 101 cpu clock= 2.57E+00
 sweep: tran tran162  end, cpu clock= 2.58E+00 peak memory=     397 mb
 dcop: begin dcop, cpu clock= 2.58E+00
 dcop: end dcop, cpu clock= 2.58E+00 peak memory=     397 mb tot_iter=    1482
 output: ex3_2.mt0
 sweep: tran tran163  begin, stop_t=  5.00E-09 #sweeps= 101 cpu clock= 2.58E+00
 sweep: tran tran163  end, cpu clock= 2.59E+00 peak memory=     397 mb
 dcop: begin dcop, cpu clock= 2.59E+00
 dcop: end dcop, cpu clock= 2.59E+00 peak memory=     397 mb tot_iter=    1491
 output: ex3_2.mt0
 sweep: tran tran164  begin, stop_t=  5.00E-09 #sweeps= 101 cpu clock= 2.60E+00
 sweep: tran tran164  end, cpu clock= 2.61E+00 peak memory=     397 mb
 dcop: begin dcop, cpu clock= 2.61E+00
 dcop: end dcop, cpu clock= 2.61E+00 peak memory=     397 mb tot_iter=    1500
 output: ex3_2.mt0
 sweep: tran tran165  begin, stop_t=  5.00E-09 #sweeps= 101 cpu clock= 2.61E+00
 sweep: tran tran165  end, cpu clock= 2.62E+00 peak memory=     397 mb
 dcop: begin dcop, cpu clock= 2.62E+00
 dcop: end dcop, cpu clock= 2.62E+00 peak memory=     397 mb tot_iter=    1509
 output: ex3_2.mt0
 sweep: tran tran166  begin, stop_t=  5.00E-09 #sweeps= 101 cpu clock= 2.63E+00
 sweep: tran tran166  end, cpu clock= 2.64E+00 peak memory=     397 mb
 dcop: begin dcop, cpu clock= 2.64E+00
 dcop: end dcop, cpu clock= 2.64E+00 peak memory=     397 mb tot_iter=    1518
 output: ex3_2.mt0
 sweep: tran tran167  begin, stop_t=  5.00E-09 #sweeps= 101 cpu clock= 2.64E+00
 sweep: tran tran167  end, cpu clock= 2.65E+00 peak memory=     397 mb
 dcop: begin dcop, cpu clock= 2.65E+00
 dcop: end dcop, cpu clock= 2.65E+00 peak memory=     397 mb tot_iter=    1527
 output: ex3_2.mt0
 sweep: tran tran168  begin, stop_t=  5.00E-09 #sweeps= 101 cpu clock= 2.65E+00
 sweep: tran tran168  end, cpu clock= 2.66E+00 peak memory=     397 mb
 dcop: begin dcop, cpu clock= 2.66E+00
 dcop: end dcop, cpu clock= 2.66E+00 peak memory=     397 mb tot_iter=    1536
 output: ex3_2.mt0
 sweep: tran tran169  begin, stop_t=  5.00E-09 #sweeps= 101 cpu clock= 2.66E+00
 sweep: tran tran169  end, cpu clock= 2.67E+00 peak memory=     397 mb
 dcop: begin dcop, cpu clock= 2.68E+00
 dcop: end dcop, cpu clock= 2.68E+00 peak memory=     397 mb tot_iter=    1545
 output: ex3_2.mt0
 sweep: tran tran170  begin, stop_t=  5.00E-09 #sweeps= 101 cpu clock= 2.68E+00
 sweep: tran tran170  end, cpu clock= 2.68E+00 peak memory=     397 mb
 dcop: begin dcop, cpu clock= 2.69E+00
 dcop: end dcop, cpu clock= 2.69E+00 peak memory=     397 mb tot_iter=    1554
 output: ex3_2.mt0
 sweep: tran tran171  begin, stop_t=  5.00E-09 #sweeps= 101 cpu clock= 2.69E+00
 sweep: tran tran171  end, cpu clock= 2.70E+00 peak memory=     397 mb
 dcop: begin dcop, cpu clock= 2.70E+00
 dcop: end dcop, cpu clock= 2.71E+00 peak memory=     397 mb tot_iter=    1563
 output: ex3_2.mt0
 sweep: tran tran172  begin, stop_t=  5.00E-09 #sweeps= 101 cpu clock= 2.71E+00
 sweep: tran tran172  end, cpu clock= 2.72E+00 peak memory=     397 mb
 dcop: begin dcop, cpu clock= 2.72E+00
 dcop: end dcop, cpu clock= 2.73E+00 peak memory=     397 mb tot_iter=    1572
 output: ex3_2.mt0
 sweep: tran tran173  begin, stop_t=  5.00E-09 #sweeps= 101 cpu clock= 2.73E+00
 sweep: tran tran173  end, cpu clock= 2.73E+00 peak memory=     397 mb
 dcop: begin dcop, cpu clock= 2.73E+00
 dcop: end dcop, cpu clock= 2.74E+00 peak memory=     397 mb tot_iter=    1581
 output: ex3_2.mt0
 sweep: tran tran174  begin, stop_t=  5.00E-09 #sweeps= 101 cpu clock= 2.74E+00
 sweep: tran tran174  end, cpu clock= 2.75E+00 peak memory=     397 mb
 dcop: begin dcop, cpu clock= 2.75E+00
 dcop: end dcop, cpu clock= 2.75E+00 peak memory=     397 mb tot_iter=    1590
 output: ex3_2.mt0
 sweep: tran tran175  begin, stop_t=  5.00E-09 #sweeps= 101 cpu clock= 2.75E+00
 sweep: tran tran175  end, cpu clock= 2.76E+00 peak memory=     397 mb
 dcop: begin dcop, cpu clock= 2.76E+00
 dcop: end dcop, cpu clock= 2.77E+00 peak memory=     397 mb tot_iter=    1599
 output: ex3_2.mt0
 sweep: tran tran176  begin, stop_t=  5.00E-09 #sweeps= 101 cpu clock= 2.77E+00
 sweep: tran tran176  end, cpu clock= 2.78E+00 peak memory=     397 mb
 dcop: begin dcop, cpu clock= 2.78E+00
 dcop: end dcop, cpu clock= 2.78E+00 peak memory=     397 mb tot_iter=    1608
 output: ex3_2.mt0
 sweep: tran tran177  begin, stop_t=  5.00E-09 #sweeps= 101 cpu clock= 2.78E+00
 sweep: tran tran177  end, cpu clock= 2.79E+00 peak memory=     397 mb
 dcop: begin dcop, cpu clock= 2.79E+00
 dcop: end dcop, cpu clock= 2.79E+00 peak memory=     397 mb tot_iter=    1617
 output: ex3_2.mt0
 sweep: tran tran178  begin, stop_t=  5.00E-09 #sweeps= 101 cpu clock= 2.80E+00
 sweep: tran tran178  end, cpu clock= 2.81E+00 peak memory=     397 mb
 dcop: begin dcop, cpu clock= 2.81E+00
 dcop: end dcop, cpu clock= 2.81E+00 peak memory=     397 mb tot_iter=    1626
 output: ex3_2.mt0
 sweep: tran tran179  begin, stop_t=  5.00E-09 #sweeps= 101 cpu clock= 2.81E+00
 sweep: tran tran179  end, cpu clock= 2.82E+00 peak memory=     397 mb
 dcop: begin dcop, cpu clock= 2.82E+00
 dcop: end dcop, cpu clock= 2.82E+00 peak memory=     397 mb tot_iter=    1635
 output: ex3_2.mt0
 sweep: tran tran180  begin, stop_t=  5.00E-09 #sweeps= 101 cpu clock= 2.83E+00
 sweep: tran tran180  end, cpu clock= 2.84E+00 peak memory=     397 mb
 dcop: begin dcop, cpu clock= 2.84E+00
 dcop: end dcop, cpu clock= 2.84E+00 peak memory=     397 mb tot_iter=    1644
 output: ex3_2.mt0
 sweep: tran tran181  begin, stop_t=  5.00E-09 #sweeps= 101 cpu clock= 2.84E+00
 sweep: tran tran181  end, cpu clock= 2.85E+00 peak memory=     397 mb
 dcop: begin dcop, cpu clock= 2.85E+00
 dcop: end dcop, cpu clock= 2.85E+00 peak memory=     397 mb tot_iter=    1653
 output: ex3_2.mt0
 sweep: tran tran182  begin, stop_t=  5.00E-09 #sweeps= 101 cpu clock= 2.85E+00
 sweep: tran tran182  end, cpu clock= 2.86E+00 peak memory=     397 mb
 dcop: begin dcop, cpu clock= 2.86E+00
 dcop: end dcop, cpu clock= 2.87E+00 peak memory=     397 mb tot_iter=    1662
 output: ex3_2.mt0
 sweep: tran tran183  begin, stop_t=  5.00E-09 #sweeps= 101 cpu clock= 2.87E+00
 sweep: tran tran183  end, cpu clock= 2.88E+00 peak memory=     397 mb
 dcop: begin dcop, cpu clock= 2.88E+00
 dcop: end dcop, cpu clock= 2.88E+00 peak memory=     397 mb tot_iter=    1671
 output: ex3_2.mt0
 sweep: tran tran184  begin, stop_t=  5.00E-09 #sweeps= 101 cpu clock= 2.88E+00
 sweep: tran tran184  end, cpu clock= 2.89E+00 peak memory=     397 mb
 dcop: begin dcop, cpu clock= 2.89E+00
 dcop: end dcop, cpu clock= 2.89E+00 peak memory=     397 mb tot_iter=    1680
 output: ex3_2.mt0
 sweep: tran tran185  begin, stop_t=  5.00E-09 #sweeps= 101 cpu clock= 2.89E+00
 sweep: tran tran185  end, cpu clock= 2.90E+00 peak memory=     397 mb
 dcop: begin dcop, cpu clock= 2.91E+00
 dcop: end dcop, cpu clock= 2.91E+00 peak memory=     397 mb tot_iter=    1689
 output: ex3_2.mt0
 sweep: tran tran186  begin, stop_t=  5.00E-09 #sweeps= 101 cpu clock= 2.91E+00
 sweep: tran tran186  end, cpu clock= 2.92E+00 peak memory=     397 mb
 dcop: begin dcop, cpu clock= 2.92E+00
 dcop: end dcop, cpu clock= 2.93E+00 peak memory=     397 mb tot_iter=    1698
 output: ex3_2.mt0
 sweep: tran tran187  begin, stop_t=  5.00E-09 #sweeps= 101 cpu clock= 2.93E+00
 sweep: tran tran187  end, cpu clock= 2.94E+00 peak memory=     397 mb
 dcop: begin dcop, cpu clock= 2.94E+00
 dcop: end dcop, cpu clock= 2.94E+00 peak memory=     397 mb tot_iter=    1707
 output: ex3_2.mt0
 sweep: tran tran188  begin, stop_t=  5.00E-09 #sweeps= 101 cpu clock= 2.95E+00
 sweep: tran tran188  end, cpu clock= 2.96E+00 peak memory=     397 mb
 dcop: begin dcop, cpu clock= 2.96E+00
 dcop: end dcop, cpu clock= 2.96E+00 peak memory=     397 mb tot_iter=    1716
 output: ex3_2.mt0
 sweep: tran tran189  begin, stop_t=  5.00E-09 #sweeps= 101 cpu clock= 2.96E+00
 sweep: tran tran189  end, cpu clock= 2.97E+00 peak memory=     397 mb
 dcop: begin dcop, cpu clock= 2.97E+00
 dcop: end dcop, cpu clock= 2.98E+00 peak memory=     397 mb tot_iter=    1725
 output: ex3_2.mt0
 sweep: tran tran190  begin, stop_t=  5.00E-09 #sweeps= 101 cpu clock= 2.98E+00
 sweep: tran tran190  end, cpu clock= 2.99E+00 peak memory=     397 mb
 dcop: begin dcop, cpu clock= 2.99E+00
 dcop: end dcop, cpu clock= 2.99E+00 peak memory=     397 mb tot_iter=    1734
 output: ex3_2.mt0
 sweep: tran tran191  begin, stop_t=  5.00E-09 #sweeps= 101 cpu clock= 2.99E+00
 sweep: tran tran191  end, cpu clock= 3.00E+00 peak memory=     397 mb
 dcop: begin dcop, cpu clock= 3.00E+00
 dcop: end dcop, cpu clock= 3.00E+00 peak memory=     397 mb tot_iter=    1743
 output: ex3_2.mt0
 sweep: tran tran192  begin, stop_t=  5.00E-09 #sweeps= 101 cpu clock= 3.01E+00
 sweep: tran tran192  end, cpu clock= 3.02E+00 peak memory=     397 mb
 dcop: begin dcop, cpu clock= 3.02E+00
 dcop: end dcop, cpu clock= 3.02E+00 peak memory=     397 mb tot_iter=    1752
 output: ex3_2.mt0
 sweep: tran tran193  begin, stop_t=  5.00E-09 #sweeps= 101 cpu clock= 3.02E+00
 sweep: tran tran193  end, cpu clock= 3.03E+00 peak memory=     397 mb
 dcop: begin dcop, cpu clock= 3.03E+00
 dcop: end dcop, cpu clock= 3.03E+00 peak memory=     397 mb tot_iter=    1761
 output: ex3_2.mt0
 sweep: tran tran194  begin, stop_t=  5.00E-09 #sweeps= 101 cpu clock= 3.03E+00
 sweep: tran tran194  end, cpu clock= 3.04E+00 peak memory=     397 mb
 dcop: begin dcop, cpu clock= 3.05E+00
 dcop: end dcop, cpu clock= 3.05E+00 peak memory=     397 mb tot_iter=    1770
 output: ex3_2.mt0
 sweep: tran tran195  begin, stop_t=  5.00E-09 #sweeps= 101 cpu clock= 3.05E+00
 sweep: tran tran195  end, cpu clock= 3.06E+00 peak memory=     397 mb
 dcop: begin dcop, cpu clock= 3.06E+00
 dcop: end dcop, cpu clock= 3.06E+00 peak memory=     397 mb tot_iter=    1779
 output: ex3_2.mt0
 sweep: tran tran196  begin, stop_t=  5.00E-09 #sweeps= 101 cpu clock= 3.06E+00
 sweep: tran tran196  end, cpu clock= 3.07E+00 peak memory=     397 mb
 dcop: begin dcop, cpu clock= 3.08E+00
 dcop: end dcop, cpu clock= 3.08E+00 peak memory=     397 mb tot_iter=    1788
 output: ex3_2.mt0
 sweep: tran tran197  begin, stop_t=  5.00E-09 #sweeps= 101 cpu clock= 3.08E+00
 sweep: tran tran197  end, cpu clock= 3.08E+00 peak memory=     397 mb
 dcop: begin dcop, cpu clock= 3.09E+00
 dcop: end dcop, cpu clock= 3.09E+00 peak memory=     397 mb tot_iter=    1797
 output: ex3_2.mt0
 sweep: tran tran198  begin, stop_t=  5.00E-09 #sweeps= 101 cpu clock= 3.09E+00
 sweep: tran tran198  end, cpu clock= 3.10E+00 peak memory=     397 mb
 dcop: begin dcop, cpu clock= 3.11E+00
 dcop: end dcop, cpu clock= 3.11E+00 peak memory=     397 mb tot_iter=    1806
 output: ex3_2.mt0
 sweep: tran tran199  begin, stop_t=  5.00E-09 #sweeps= 101 cpu clock= 3.11E+00
 sweep: tran tran199  end, cpu clock= 3.11E+00 peak memory=     397 mb
 dcop: begin dcop, cpu clock= 3.12E+00
 dcop: end dcop, cpu clock= 3.12E+00 peak memory=     397 mb tot_iter=    1815
 output: ex3_2.mt0
 sweep: tran tran200  begin, stop_t=  5.00E-09 #sweeps= 101 cpu clock= 3.12E+00
 sweep: tran tran200  end, cpu clock= 3.13E+00 peak memory=     397 mb
 dcop: begin dcop, cpu clock= 3.14E+00
 dcop: end dcop, cpu clock= 3.14E+00 peak memory=     397 mb tot_iter=    1824
 output: ex3_2.mt0
 sweep: tran tran201  begin, stop_t=  5.00E-09 #sweeps= 101 cpu clock= 3.14E+00
 sweep: tran tran201  end, cpu clock= 3.14E+00 peak memory=     397 mb
 dcop: begin dcop, cpu clock= 3.15E+00
 dcop: end dcop, cpu clock= 3.15E+00 peak memory=     397 mb tot_iter=    1833
 output: ex3_2.mt0
 sweep: tran tran202  begin, stop_t=  5.00E-09 #sweeps= 101 cpu clock= 3.15E+00
 sweep: tran tran202  end, cpu clock= 3.16E+00 peak memory=     397 mb
 dcop: begin dcop, cpu clock= 3.17E+00
 dcop: end dcop, cpu clock= 3.17E+00 peak memory=     397 mb tot_iter=    1842
 output: ex3_2.mt0
 sweep: tran tran203  begin, stop_t=  5.00E-09 #sweeps= 101 cpu clock= 3.17E+00
 sweep: tran tran203  end, cpu clock= 3.17E+00 peak memory=     397 mb
 dcop: begin dcop, cpu clock= 3.17E+00
 dcop: end dcop, cpu clock= 3.18E+00 peak memory=     397 mb tot_iter=    1851
 output: ex3_2.mt0
 sweep: tran tran204  begin, stop_t=  5.00E-09 #sweeps= 101 cpu clock= 3.18E+00
 sweep: tran tran204  end, cpu clock= 3.19E+00 peak memory=     397 mb
 dcop: begin dcop, cpu clock= 3.19E+00
 dcop: end dcop, cpu clock= 3.19E+00 peak memory=     397 mb tot_iter=    1860
 output: ex3_2.mt0
 sweep: tran tran205  begin, stop_t=  5.00E-09 #sweeps= 101 cpu clock= 3.19E+00
 sweep: tran tran205  end, cpu clock= 3.20E+00 peak memory=     397 mb
 dcop: begin dcop, cpu clock= 3.20E+00
 dcop: end dcop, cpu clock= 3.21E+00 peak memory=     397 mb tot_iter=    1869
 output: ex3_2.mt0
 sweep: tran tran206  begin, stop_t=  5.00E-09 #sweeps= 101 cpu clock= 3.21E+00
 sweep: tran tran206  end, cpu clock= 3.22E+00 peak memory=     397 mb
 dcop: begin dcop, cpu clock= 3.23E+00
 dcop: end dcop, cpu clock= 3.23E+00 peak memory=     397 mb tot_iter=    1878
 output: ex3_2.mt0
 sweep: tran tran207  begin, stop_t=  5.00E-09 #sweeps= 101 cpu clock= 3.23E+00
 sweep: tran tran207  end, cpu clock= 3.23E+00 peak memory=     397 mb
 dcop: begin dcop, cpu clock= 3.24E+00
 dcop: end dcop, cpu clock= 3.24E+00 peak memory=     397 mb tot_iter=    1887
 output: ex3_2.mt0
 sweep: tran tran208  begin, stop_t=  5.00E-09 #sweeps= 101 cpu clock= 3.24E+00
 sweep: tran tran208  end, cpu clock= 3.26E+00 peak memory=     397 mb
 dcop: begin dcop, cpu clock= 3.26E+00
 dcop: end dcop, cpu clock= 3.26E+00 peak memory=     397 mb tot_iter=    1896
 output: ex3_2.mt0
 sweep: tran tran209  begin, stop_t=  5.00E-09 #sweeps= 101 cpu clock= 3.26E+00
 sweep: tran tran209  end, cpu clock= 3.27E+00 peak memory=     397 mb
 dcop: begin dcop, cpu clock= 3.27E+00
 dcop: end dcop, cpu clock= 3.27E+00 peak memory=     397 mb tot_iter=    1905
 output: ex3_2.mt0
 sweep: tran tran210  begin, stop_t=  5.00E-09 #sweeps= 101 cpu clock= 3.27E+00
 sweep: tran tran210  end, cpu clock= 3.28E+00 peak memory=     397 mb
 dcop: begin dcop, cpu clock= 3.29E+00
 dcop: end dcop, cpu clock= 3.29E+00 peak memory=     397 mb tot_iter=    1914
 output: ex3_2.mt0
 sweep: tran tran211  begin, stop_t=  5.00E-09 #sweeps= 101 cpu clock= 3.29E+00
 sweep: tran tran211  end, cpu clock= 3.30E+00 peak memory=     397 mb
 dcop: begin dcop, cpu clock= 3.30E+00
 dcop: end dcop, cpu clock= 3.30E+00 peak memory=     397 mb tot_iter=    1923
 output: ex3_2.mt0
 sweep: tran tran212  begin, stop_t=  5.00E-09 #sweeps= 101 cpu clock= 3.30E+00
 sweep: tran tran212  end, cpu clock= 3.31E+00 peak memory=     397 mb
 dcop: begin dcop, cpu clock= 3.31E+00
 dcop: end dcop, cpu clock= 3.32E+00 peak memory=     397 mb tot_iter=    1932
 output: ex3_2.mt0
 sweep: tran tran213  begin, stop_t=  5.00E-09 #sweeps= 101 cpu clock= 3.32E+00
 sweep: tran tran213  end, cpu clock= 3.32E+00 peak memory=     397 mb
 dcop: begin dcop, cpu clock= 3.32E+00
 dcop: end dcop, cpu clock= 3.33E+00 peak memory=     397 mb tot_iter=    1941
 output: ex3_2.mt0
 sweep: tran tran214  begin, stop_t=  5.00E-09 #sweeps= 101 cpu clock= 3.33E+00
 sweep: tran tran214  end, cpu clock= 3.34E+00 peak memory=     397 mb
 dcop: begin dcop, cpu clock= 3.34E+00
 dcop: end dcop, cpu clock= 3.35E+00 peak memory=     397 mb tot_iter=    1950
 output: ex3_2.mt0
 sweep: tran tran215  begin, stop_t=  5.00E-09 #sweeps= 101 cpu clock= 3.35E+00
 sweep: tran tran215  end, cpu clock= 3.35E+00 peak memory=     397 mb
 dcop: begin dcop, cpu clock= 3.35E+00
 dcop: end dcop, cpu clock= 3.36E+00 peak memory=     397 mb tot_iter=    1959
 output: ex3_2.mt0
 sweep: tran tran216  begin, stop_t=  5.00E-09 #sweeps= 101 cpu clock= 3.36E+00
 sweep: tran tran216  end, cpu clock= 3.37E+00 peak memory=     397 mb
 dcop: begin dcop, cpu clock= 3.37E+00
 dcop: end dcop, cpu clock= 3.38E+00 peak memory=     397 mb tot_iter=    1968
 output: ex3_2.mt0
 sweep: tran tran217  begin, stop_t=  5.00E-09 #sweeps= 101 cpu clock= 3.38E+00
 sweep: tran tran217  end, cpu clock= 3.38E+00 peak memory=     397 mb
 dcop: begin dcop, cpu clock= 3.38E+00
 dcop: end dcop, cpu clock= 3.39E+00 peak memory=     397 mb tot_iter=    1977
 output: ex3_2.mt0
 sweep: tran tran218  begin, stop_t=  5.00E-09 #sweeps= 101 cpu clock= 3.39E+00
 sweep: tran tran218  end, cpu clock= 3.40E+00 peak memory=     397 mb
 dcop: begin dcop, cpu clock= 3.40E+00
 dcop: end dcop, cpu clock= 3.40E+00 peak memory=     397 mb tot_iter=    1986
 output: ex3_2.mt0
 sweep: tran tran219  begin, stop_t=  5.00E-09 #sweeps= 101 cpu clock= 3.40E+00
 sweep: tran tran219  end, cpu clock= 3.41E+00 peak memory=     397 mb
 dcop: begin dcop, cpu clock= 3.41E+00
 dcop: end dcop, cpu clock= 3.42E+00 peak memory=     397 mb tot_iter=    1995
 output: ex3_2.mt0
 sweep: tran tran220  begin, stop_t=  5.00E-09 #sweeps= 101 cpu clock= 3.42E+00
 sweep: tran tran220  end, cpu clock= 3.43E+00 peak memory=     397 mb
 dcop: begin dcop, cpu clock= 3.43E+00
 dcop: end dcop, cpu clock= 3.44E+00 peak memory=     397 mb tot_iter=    2004
 output: ex3_2.mt0
 sweep: tran tran221  begin, stop_t=  5.00E-09 #sweeps= 101 cpu clock= 3.44E+00
 sweep: tran tran221  end, cpu clock= 3.44E+00 peak memory=     397 mb
 dcop: begin dcop, cpu clock= 3.44E+00
 dcop: end dcop, cpu clock= 3.45E+00 peak memory=     397 mb tot_iter=    2013
 output: ex3_2.mt0
 sweep: tran tran222  begin, stop_t=  5.00E-09 #sweeps= 101 cpu clock= 3.45E+00
 sweep: tran tran222  end, cpu clock= 3.46E+00 peak memory=     397 mb
 dcop: begin dcop, cpu clock= 3.46E+00
 dcop: end dcop, cpu clock= 3.46E+00 peak memory=     397 mb tot_iter=    2022
 output: ex3_2.mt0
 sweep: tran tran223  begin, stop_t=  5.00E-09 #sweeps= 101 cpu clock= 3.46E+00
 sweep: tran tran223  end, cpu clock= 3.47E+00 peak memory=     397 mb
 dcop: begin dcop, cpu clock= 3.48E+00
 dcop: end dcop, cpu clock= 3.48E+00 peak memory=     397 mb tot_iter=    2031
 output: ex3_2.mt0
 sweep: tran tran224  begin, stop_t=  5.00E-09 #sweeps= 101 cpu clock= 3.48E+00
 sweep: tran tran224  end, cpu clock= 3.48E+00 peak memory=     397 mb
 dcop: begin dcop, cpu clock= 3.49E+00
 dcop: end dcop, cpu clock= 3.49E+00 peak memory=     397 mb tot_iter=    2040
 output: ex3_2.mt0
 sweep: tran tran225  begin, stop_t=  5.00E-09 #sweeps= 101 cpu clock= 3.49E+00
 sweep: tran tran225  end, cpu clock= 3.50E+00 peak memory=     397 mb
 dcop: begin dcop, cpu clock= 3.50E+00
 dcop: end dcop, cpu clock= 3.50E+00 peak memory=     397 mb tot_iter=    2049
 output: ex3_2.mt0
 sweep: tran tran226  begin, stop_t=  5.00E-09 #sweeps= 101 cpu clock= 3.50E+00
 sweep: tran tran226  end, cpu clock= 3.51E+00 peak memory=     397 mb
 dcop: begin dcop, cpu clock= 3.51E+00
 dcop: end dcop, cpu clock= 3.52E+00 peak memory=     397 mb tot_iter=    2058
 output: ex3_2.mt0
 sweep: tran tran227  begin, stop_t=  5.00E-09 #sweeps= 101 cpu clock= 3.52E+00
 sweep: tran tran227  end, cpu clock= 3.53E+00 peak memory=     397 mb
 dcop: begin dcop, cpu clock= 3.53E+00
 dcop: end dcop, cpu clock= 3.53E+00 peak memory=     397 mb tot_iter=    2067
 output: ex3_2.mt0
 sweep: tran tran228  begin, stop_t=  5.00E-09 #sweeps= 101 cpu clock= 3.53E+00
 sweep: tran tran228  end, cpu clock= 3.54E+00 peak memory=     397 mb
 dcop: begin dcop, cpu clock= 3.54E+00
 dcop: end dcop, cpu clock= 3.55E+00 peak memory=     397 mb tot_iter=    2076
 output: ex3_2.mt0
 sweep: tran tran229  begin, stop_t=  5.00E-09 #sweeps= 101 cpu clock= 3.55E+00
 sweep: tran tran229  end, cpu clock= 3.56E+00 peak memory=     397 mb
 dcop: begin dcop, cpu clock= 3.56E+00
 dcop: end dcop, cpu clock= 3.56E+00 peak memory=     397 mb tot_iter=    2085
 output: ex3_2.mt0
 sweep: tran tran230  begin, stop_t=  5.00E-09 #sweeps= 101 cpu clock= 3.56E+00
 sweep: tran tran230  end, cpu clock= 3.57E+00 peak memory=     397 mb
 dcop: begin dcop, cpu clock= 3.57E+00
 dcop: end dcop, cpu clock= 3.57E+00 peak memory=     397 mb tot_iter=    2094
 output: ex3_2.mt0
 sweep: tran tran231  begin, stop_t=  5.00E-09 #sweeps= 101 cpu clock= 3.57E+00
 sweep: tran tran231  end, cpu clock= 3.58E+00 peak memory=     397 mb
 dcop: begin dcop, cpu clock= 3.59E+00
 dcop: end dcop, cpu clock= 3.59E+00 peak memory=     397 mb tot_iter=    2103
 output: ex3_2.mt0
 sweep: tran tran232  begin, stop_t=  5.00E-09 #sweeps= 101 cpu clock= 3.59E+00
 sweep: tran tran232  end, cpu clock= 3.60E+00 peak memory=     397 mb
 dcop: begin dcop, cpu clock= 3.60E+00
 dcop: end dcop, cpu clock= 3.60E+00 peak memory=     397 mb tot_iter=    2112
 output: ex3_2.mt0
 sweep: tran tran233  begin, stop_t=  5.00E-09 #sweeps= 101 cpu clock= 3.60E+00
 sweep: tran tran233  end, cpu clock= 3.61E+00 peak memory=     397 mb
 dcop: begin dcop, cpu clock= 3.61E+00
 dcop: end dcop, cpu clock= 3.61E+00 peak memory=     397 mb tot_iter=    2121
 output: ex3_2.mt0
 sweep: tran tran234  begin, stop_t=  5.00E-09 #sweeps= 101 cpu clock= 3.61E+00
 sweep: tran tran234  end, cpu clock= 3.62E+00 peak memory=     397 mb
 dcop: begin dcop, cpu clock= 3.62E+00
 dcop: end dcop, cpu clock= 3.62E+00 peak memory=     397 mb tot_iter=    2130
 output: ex3_2.mt0
 sweep: tran tran235  begin, stop_t=  5.00E-09 #sweeps= 101 cpu clock= 3.62E+00
 sweep: tran tran235  end, cpu clock= 3.63E+00 peak memory=     397 mb
 dcop: begin dcop, cpu clock= 3.63E+00
 dcop: end dcop, cpu clock= 3.63E+00 peak memory=     397 mb tot_iter=    2139
 output: ex3_2.mt0
 sweep: tran tran236  begin, stop_t=  5.00E-09 #sweeps= 101 cpu clock= 3.63E+00
 sweep: tran tran236  end, cpu clock= 3.64E+00 peak memory=     397 mb
 dcop: begin dcop, cpu clock= 3.64E+00
 dcop: end dcop, cpu clock= 3.64E+00 peak memory=     397 mb tot_iter=    2148
 output: ex3_2.mt0
 sweep: tran tran237  begin, stop_t=  5.00E-09 #sweeps= 101 cpu clock= 3.65E+00
 sweep: tran tran237  end, cpu clock= 3.65E+00 peak memory=     397 mb
 dcop: begin dcop, cpu clock= 3.65E+00
 dcop: end dcop, cpu clock= 3.66E+00 peak memory=     397 mb tot_iter=    2157
 output: ex3_2.mt0
 sweep: tran tran238  begin, stop_t=  5.00E-09 #sweeps= 101 cpu clock= 3.66E+00
 sweep: tran tran238  end, cpu clock= 3.67E+00 peak memory=     397 mb
 dcop: begin dcop, cpu clock= 3.67E+00
 dcop: end dcop, cpu clock= 3.67E+00 peak memory=     397 mb tot_iter=    2166
 output: ex3_2.mt0
 sweep: tran tran239  begin, stop_t=  5.00E-09 #sweeps= 101 cpu clock= 3.67E+00
 sweep: tran tran239  end, cpu clock= 3.68E+00 peak memory=     397 mb
 dcop: begin dcop, cpu clock= 3.69E+00
 dcop: end dcop, cpu clock= 3.69E+00 peak memory=     397 mb tot_iter=    2175
 output: ex3_2.mt0
 sweep: tran tran240  begin, stop_t=  5.00E-09 #sweeps= 101 cpu clock= 3.69E+00
 sweep: tran tran240  end, cpu clock= 3.70E+00 peak memory=     397 mb
 dcop: begin dcop, cpu clock= 3.70E+00
 dcop: end dcop, cpu clock= 3.70E+00 peak memory=     397 mb tot_iter=    2184
 output: ex3_2.mt0
 sweep: tran tran241  begin, stop_t=  5.00E-09 #sweeps= 101 cpu clock= 3.70E+00
 sweep: tran tran241  end, cpu clock= 3.71E+00 peak memory=     397 mb
 dcop: begin dcop, cpu clock= 3.71E+00
 dcop: end dcop, cpu clock= 3.72E+00 peak memory=     397 mb tot_iter=    2193
 output: ex3_2.mt0
 sweep: tran tran242  begin, stop_t=  5.00E-09 #sweeps= 101 cpu clock= 3.72E+00
 sweep: tran tran242  end, cpu clock= 3.73E+00 peak memory=     397 mb
 dcop: begin dcop, cpu clock= 3.73E+00
 dcop: end dcop, cpu clock= 3.73E+00 peak memory=     397 mb tot_iter=    2202
 output: ex3_2.mt0
 sweep: tran tran243  begin, stop_t=  5.00E-09 #sweeps= 101 cpu clock= 3.73E+00
 sweep: tran tran243  end, cpu clock= 3.74E+00 peak memory=     397 mb
 dcop: begin dcop, cpu clock= 3.74E+00
 dcop: end dcop, cpu clock= 3.75E+00 peak memory=     397 mb tot_iter=    2211
 output: ex3_2.mt0
 sweep: tran tran244  begin, stop_t=  5.00E-09 #sweeps= 101 cpu clock= 3.75E+00
 sweep: tran tran244  end, cpu clock= 3.76E+00 peak memory=     397 mb
 dcop: begin dcop, cpu clock= 3.76E+00
 dcop: end dcop, cpu clock= 3.76E+00 peak memory=     397 mb tot_iter=    2220
 output: ex3_2.mt0
 sweep: tran tran245  begin, stop_t=  5.00E-09 #sweeps= 101 cpu clock= 3.76E+00
 sweep: tran tran245  end, cpu clock= 3.78E+00 peak memory=     397 mb
 dcop: begin dcop, cpu clock= 3.78E+00
 dcop: end dcop, cpu clock= 3.78E+00 peak memory=     397 mb tot_iter=    2229
 output: ex3_2.mt0
 sweep: tran tran246  begin, stop_t=  5.00E-09 #sweeps= 101 cpu clock= 3.78E+00
 sweep: tran tran246  end, cpu clock= 3.79E+00 peak memory=     397 mb
 dcop: begin dcop, cpu clock= 3.79E+00
 dcop: end dcop, cpu clock= 3.80E+00 peak memory=     397 mb tot_iter=    2238
 output: ex3_2.mt0
 sweep: tran tran247  begin, stop_t=  5.00E-09 #sweeps= 101 cpu clock= 3.80E+00
 sweep: tran tran247  end, cpu clock= 3.80E+00 peak memory=     397 mb
 dcop: begin dcop, cpu clock= 3.81E+00
 dcop: end dcop, cpu clock= 3.81E+00 peak memory=     397 mb tot_iter=    2247
 output: ex3_2.mt0
 sweep: tran tran248  begin, stop_t=  5.00E-09 #sweeps= 101 cpu clock= 3.81E+00
 sweep: tran tran248  end, cpu clock= 3.82E+00 peak memory=     397 mb
 dcop: begin dcop, cpu clock= 3.82E+00
 dcop: end dcop, cpu clock= 3.82E+00 peak memory=     397 mb tot_iter=    2256
 output: ex3_2.mt0
 sweep: tran tran249  begin, stop_t=  5.00E-09 #sweeps= 101 cpu clock= 3.82E+00
 sweep: tran tran249  end, cpu clock= 3.83E+00 peak memory=     397 mb
 dcop: begin dcop, cpu clock= 3.83E+00
 dcop: end dcop, cpu clock= 3.83E+00 peak memory=     397 mb tot_iter=    2265
 output: ex3_2.mt0
 sweep: tran tran250  begin, stop_t=  5.00E-09 #sweeps= 101 cpu clock= 3.84E+00
 sweep: tran tran250  end, cpu clock= 3.84E+00 peak memory=     397 mb
 dcop: begin dcop, cpu clock= 3.85E+00
 dcop: end dcop, cpu clock= 3.85E+00 peak memory=     397 mb tot_iter=    2274
 output: ex3_2.mt0
 sweep: tran tran251  begin, stop_t=  5.00E-09 #sweeps= 101 cpu clock= 3.85E+00
 sweep: tran tran251  end, cpu clock= 3.85E+00 peak memory=     397 mb
 dcop: begin dcop, cpu clock= 3.85E+00
 dcop: end dcop, cpu clock= 3.86E+00 peak memory=     397 mb tot_iter=    2283
 output: ex3_2.mt0
 sweep: tran tran252  begin, stop_t=  5.00E-09 #sweeps= 101 cpu clock= 3.86E+00
 sweep: tran tran252  end, cpu clock= 3.87E+00 peak memory=     397 mb
 dcop: begin dcop, cpu clock= 3.88E+00
 dcop: end dcop, cpu clock= 3.88E+00 peak memory=     397 mb tot_iter=    2292
 output: ex3_2.mt0
 sweep: tran tran253  begin, stop_t=  5.00E-09 #sweeps= 101 cpu clock= 3.88E+00
 sweep: tran tran253  end, cpu clock= 3.89E+00 peak memory=     397 mb
 dcop: begin dcop, cpu clock= 3.89E+00
 dcop: end dcop, cpu clock= 3.89E+00 peak memory=     397 mb tot_iter=    2301
 output: ex3_2.mt0
 sweep: tran tran254  begin, stop_t=  5.00E-09 #sweeps= 101 cpu clock= 3.89E+00
 sweep: tran tran254  end, cpu clock= 3.90E+00 peak memory=     397 mb
 dcop: begin dcop, cpu clock= 3.90E+00
 dcop: end dcop, cpu clock= 3.91E+00 peak memory=     397 mb tot_iter=    2310
 output: ex3_2.mt0
 sweep: tran tran255  begin, stop_t=  5.00E-09 #sweeps= 101 cpu clock= 3.91E+00
 sweep: tran tran255  end, cpu clock= 3.92E+00 peak memory=     397 mb
 dcop: begin dcop, cpu clock= 3.92E+00
 dcop: end dcop, cpu clock= 3.92E+00 peak memory=     397 mb tot_iter=    2319
 output: ex3_2.mt0
 sweep: tran tran256  begin, stop_t=  5.00E-09 #sweeps= 101 cpu clock= 3.92E+00
 sweep: tran tran256  end, cpu clock= 3.93E+00 peak memory=     397 mb
 dcop: begin dcop, cpu clock= 3.93E+00
 dcop: end dcop, cpu clock= 3.93E+00 peak memory=     397 mb tot_iter=    2328
 output: ex3_2.mt0
 sweep: tran tran257  begin, stop_t=  5.00E-09 #sweeps= 101 cpu clock= 3.93E+00
 sweep: tran tran257  end, cpu clock= 3.94E+00 peak memory=     397 mb
 dcop: begin dcop, cpu clock= 3.94E+00
 dcop: end dcop, cpu clock= 3.95E+00 peak memory=     397 mb tot_iter=    2337
 output: ex3_2.mt0
 sweep: tran tran258  begin, stop_t=  5.00E-09 #sweeps= 101 cpu clock= 3.95E+00
 sweep: tran tran258  end, cpu clock= 3.95E+00 peak memory=     397 mb
 dcop: begin dcop, cpu clock= 3.96E+00
 dcop: end dcop, cpu clock= 3.96E+00 peak memory=     397 mb tot_iter=    2346
 output: ex3_2.mt0
 sweep: tran tran259  begin, stop_t=  5.00E-09 #sweeps= 101 cpu clock= 3.96E+00
 sweep: tran tran259  end, cpu clock= 3.96E+00 peak memory=     397 mb
 dcop: begin dcop, cpu clock= 3.96E+00
 dcop: end dcop, cpu clock= 3.97E+00 peak memory=     397 mb tot_iter=    2355
 output: ex3_2.mt0
 sweep: tran tran260  begin, stop_t=  5.00E-09 #sweeps= 101 cpu clock= 3.97E+00
 sweep: tran tran260  end, cpu clock= 3.98E+00 peak memory=     397 mb
 dcop: begin dcop, cpu clock= 3.98E+00
 dcop: end dcop, cpu clock= 3.98E+00 peak memory=     397 mb tot_iter=    2364
 output: ex3_2.mt0
 sweep: tran tran261  begin, stop_t=  5.00E-09 #sweeps= 101 cpu clock= 3.98E+00
 sweep: tran tran261  end, cpu clock= 3.99E+00 peak memory=     397 mb
 dcop: begin dcop, cpu clock= 3.99E+00
 dcop: end dcop, cpu clock= 3.99E+00 peak memory=     397 mb tot_iter=    2373
 output: ex3_2.mt0
 sweep: tran tran262  begin, stop_t=  5.00E-09 #sweeps= 101 cpu clock= 3.99E+00
 sweep: tran tran262  end, cpu clock= 4.00E+00 peak memory=     397 mb
 dcop: begin dcop, cpu clock= 4.00E+00
 dcop: end dcop, cpu clock= 4.00E+00 peak memory=     397 mb tot_iter=    2382
 output: ex3_2.mt0
 sweep: tran tran263  begin, stop_t=  5.00E-09 #sweeps= 101 cpu clock= 4.00E+00
 sweep: tran tran263  end, cpu clock= 4.01E+00 peak memory=     397 mb
 dcop: begin dcop, cpu clock= 4.02E+00
 dcop: end dcop, cpu clock= 4.02E+00 peak memory=     397 mb tot_iter=    2391
 output: ex3_2.mt0
 sweep: tran tran264  begin, stop_t=  5.00E-09 #sweeps= 101 cpu clock= 4.02E+00
 sweep: tran tran264  end, cpu clock= 4.02E+00 peak memory=     397 mb
 dcop: begin dcop, cpu clock= 4.02E+00
 dcop: end dcop, cpu clock= 4.03E+00 peak memory=     397 mb tot_iter=    2400
 output: ex3_2.mt0
 sweep: tran tran265  begin, stop_t=  5.00E-09 #sweeps= 101 cpu clock= 4.03E+00
 sweep: tran tran265  end, cpu clock= 4.04E+00 peak memory=     397 mb
 dcop: begin dcop, cpu clock= 4.05E+00
 dcop: end dcop, cpu clock= 4.05E+00 peak memory=     397 mb tot_iter=    2409
 output: ex3_2.mt0
 sweep: tran tran266  begin, stop_t=  5.00E-09 #sweeps= 101 cpu clock= 4.05E+00
 sweep: tran tran266  end, cpu clock= 4.05E+00 peak memory=     397 mb
 dcop: begin dcop, cpu clock= 4.06E+00
 dcop: end dcop, cpu clock= 4.06E+00 peak memory=     397 mb tot_iter=    2418
 output: ex3_2.mt0
 sweep: tran tran267  begin, stop_t=  5.00E-09 #sweeps= 101 cpu clock= 4.06E+00
 sweep: tran tran267  end, cpu clock= 4.07E+00 peak memory=     397 mb
 dcop: begin dcop, cpu clock= 4.07E+00
 dcop: end dcop, cpu clock= 4.07E+00 peak memory=     397 mb tot_iter=    2427
 output: ex3_2.mt0
 sweep: tran tran268  begin, stop_t=  5.00E-09 #sweeps= 101 cpu clock= 4.08E+00
 sweep: tran tran268  end, cpu clock= 4.09E+00 peak memory=     397 mb
 dcop: begin dcop, cpu clock= 4.09E+00
 dcop: end dcop, cpu clock= 4.09E+00 peak memory=     397 mb tot_iter=    2436
 output: ex3_2.mt0
 sweep: tran tran269  begin, stop_t=  5.00E-09 #sweeps= 101 cpu clock= 4.09E+00
 sweep: tran tran269  end, cpu clock= 4.10E+00 peak memory=     397 mb
 dcop: begin dcop, cpu clock= 4.10E+00
[...]
 dcop: begin dcop, cpu clock= 1.36E+01
 dcop: end dcop, cpu clock= 1.36E+01 peak memory=     397 mb tot_iter=    8403
 output: ex3_2.mt0
 sweep: tran tran932  begin, stop_t=  5.00E-09 #sweeps= 101 cpu clock= 1.36E+01
 sweep: tran tran932  end, cpu clock= 1.36E+01 peak memory=     397 mb
 dcop: begin dcop, cpu clock= 1.36E+01
 dcop: end dcop, cpu clock= 1.36E+01 peak memory=     397 mb tot_iter=    8412
 output: ex3_2.mt0
 sweep: tran tran933  begin, stop_t=  5.00E-09 #sweeps= 101 cpu clock= 1.36E+01
 sweep: tran tran933  end, cpu clock= 1.36E+01 peak memory=     397 mb
 dcop: begin dcop, cpu clock= 1.36E+01
 dcop: end dcop, cpu clock= 1.36E+01 peak memory=     397 mb tot_iter=    8421
 output: ex3_2.mt0
 sweep: tran tran934  begin, stop_t=  5.00E-09 #sweeps= 101 cpu clock= 1.36E+01
 sweep: tran tran934  end, cpu clock= 1.36E+01 peak memory=     397 mb
 dcop: begin dcop, cpu clock= 1.36E+01
 dcop: end dcop, cpu clock= 1.36E+01 peak memory=     397 mb tot_iter=    8430
 output: ex3_2.mt0
 sweep: tran tran935  begin, stop_t=  5.00E-09 #sweeps= 101 cpu clock= 1.36E+01
 sweep: tran tran935  end, cpu clock= 1.36E+01 peak memory=     397 mb
 dcop: begin dcop, cpu clock= 1.36E+01
 dcop: end dcop, cpu clock= 1.36E+01 peak memory=     397 mb tot_iter=    8439
 output: ex3_2.mt0
 sweep: tran tran936  begin, stop_t=  5.00E-09 #sweeps= 101 cpu clock= 1.36E+01
 sweep: tran tran936  end, cpu clock= 1.36E+01 peak memory=     397 mb
 dcop: begin dcop, cpu clock= 1.36E+01
 dcop: end dcop, cpu clock= 1.36E+01 peak memory=     397 mb tot_iter=    8448
 output: ex3_2.mt0
 sweep: tran tran937  begin, stop_t=  5.00E-09 #sweeps= 101 cpu clock= 1.36E+01
 sweep: tran tran937  end, cpu clock= 1.37E+01 peak memory=     397 mb
 dcop: begin dcop, cpu clock= 1.37E+01
 dcop: end dcop, cpu clock= 1.37E+01 peak memory=     397 mb tot_iter=    8457
 output: ex3_2.mt0
 sweep: tran tran938  begin, stop_t=  5.00E-09 #sweeps= 101 cpu clock= 1.37E+01
 sweep: tran tran938  end, cpu clock= 1.37E+01 peak memory=     397 mb
 dcop: begin dcop, cpu clock= 1.37E+01
 dcop: end dcop, cpu clock= 1.37E+01 peak memory=     397 mb tot_iter=    8466
 output: ex3_2.mt0
 sweep: tran tran939  begin, stop_t=  5.00E-09 #sweeps= 101 cpu clock= 1.37E+01
 sweep: tran tran939  end, cpu clock= 1.37E+01 peak memory=     397 mb
 dcop: begin dcop, cpu clock= 1.37E+01
 dcop: end dcop, cpu clock= 1.37E+01 peak memory=     397 mb tot_iter=    8475
 output: ex3_2.mt0
 sweep: tran tran940  begin, stop_t=  5.00E-09 #sweeps= 101 cpu clock= 1.37E+01
 sweep: tran tran940  end, cpu clock= 1.37E+01 peak memory=     397 mb
 dcop: begin dcop, cpu clock= 1.37E+01
 dcop: end dcop, cpu clock= 1.37E+01 peak memory=     397 mb tot_iter=    8484
 output: ex3_2.mt0
 sweep: tran tran941  begin, stop_t=  5.00E-09 #sweeps= 101 cpu clock= 1.37E+01
 sweep: tran tran941  end, cpu clock= 1.37E+01 peak memory=     397 mb
 dcop: begin dcop, cpu clock= 1.37E+01
 dcop: end dcop, cpu clock= 1.37E+01 peak memory=     397 mb tot_iter=    8493
 output: ex3_2.mt0
 sweep: tran tran942  begin, stop_t=  5.00E-09 #sweeps= 101 cpu clock= 1.37E+01
 sweep: tran tran942  end, cpu clock= 1.37E+01 peak memory=     397 mb
 dcop: begin dcop, cpu clock= 1.37E+01
 dcop: end dcop, cpu clock= 1.37E+01 peak memory=     397 mb tot_iter=    8502
 output: ex3_2.mt0
 sweep: tran tran943  begin, stop_t=  5.00E-09 #sweeps= 101 cpu clock= 1.37E+01
 sweep: tran tran943  end, cpu clock= 1.37E+01 peak memory=     397 mb
 dcop: begin dcop, cpu clock= 1.37E+01
 dcop: end dcop, cpu clock= 1.37E+01 peak memory=     397 mb tot_iter=    8511
 output: ex3_2.mt0
 sweep: tran tran944  begin, stop_t=  5.00E-09 #sweeps= 101 cpu clock= 1.37E+01
 sweep: tran tran944  end, cpu clock= 1.38E+01 peak memory=     397 mb
 dcop: begin dcop, cpu clock= 1.38E+01
 dcop: end dcop, cpu clock= 1.38E+01 peak memory=     397 mb tot_iter=    8520
 output: ex3_2.mt0
 sweep: tran tran945  begin, stop_t=  5.00E-09 #sweeps= 101 cpu clock= 1.38E+01
 sweep: tran tran945  end, cpu clock= 1.38E+01 peak memory=     397 mb
 dcop: begin dcop, cpu clock= 1.38E+01
 dcop: end dcop, cpu clock= 1.38E+01 peak memory=     397 mb tot_iter=    8529
 output: ex3_2.mt0
 sweep: tran tran946  begin, stop_t=  5.00E-09 #sweeps= 101 cpu clock= 1.38E+01
 sweep: tran tran946  end, cpu clock= 1.38E+01 peak memory=     397 mb
 dcop: begin dcop, cpu clock= 1.38E+01
 dcop: end dcop, cpu clock= 1.38E+01 peak memory=     397 mb tot_iter=    8538
 output: ex3_2.mt0
 sweep: tran tran947  begin, stop_t=  5.00E-09 #sweeps= 101 cpu clock= 1.38E+01
 sweep: tran tran947  end, cpu clock= 1.38E+01 peak memory=     397 mb
 dcop: begin dcop, cpu clock= 1.38E+01
 dcop: end dcop, cpu clock= 1.38E+01 peak memory=     397 mb tot_iter=    8547
 output: ex3_2.mt0
 sweep: tran tran948  begin, stop_t=  5.00E-09 #sweeps= 101 cpu clock= 1.38E+01
 sweep: tran tran948  end, cpu clock= 1.38E+01 peak memory=     397 mb
 dcop: begin dcop, cpu clock= 1.38E+01
 dcop: end dcop, cpu clock= 1.38E+01 peak memory=     397 mb tot_iter=    8556
 output: ex3_2.mt0
 sweep: tran tran949  begin, stop_t=  5.00E-09 #sweeps= 101 cpu clock= 1.38E+01
 sweep: tran tran949  end, cpu clock= 1.38E+01 peak memory=     397 mb
 dcop: begin dcop, cpu clock= 1.38E+01
 dcop: end dcop, cpu clock= 1.38E+01 peak memory=     397 mb tot_iter=    8565
 output: ex3_2.mt0
 sweep: tran tran950  begin, stop_t=  5.00E-09 #sweeps= 101 cpu clock= 1.38E+01
 sweep: tran tran950  end, cpu clock= 1.38E+01 peak memory=     397 mb
 dcop: begin dcop, cpu clock= 1.38E+01
 dcop: end dcop, cpu clock= 1.38E+01 peak memory=     397 mb tot_iter=    8574
 output: ex3_2.mt0
 sweep: tran tran951  begin, stop_t=  5.00E-09 #sweeps= 101 cpu clock= 1.38E+01
 sweep: tran tran951  end, cpu clock= 1.38E+01 peak memory=     397 mb
 dcop: begin dcop, cpu clock= 1.39E+01
 dcop: end dcop, cpu clock= 1.39E+01 peak memory=     397 mb tot_iter=    8583
 output: ex3_2.mt0
 sweep: tran tran952  begin, stop_t=  5.00E-09 #sweeps= 101 cpu clock= 1.39E+01
 sweep: tran tran952  end, cpu clock= 1.39E+01 peak memory=     397 mb
 dcop: begin dcop, cpu clock= 1.39E+01
 dcop: end dcop, cpu clock= 1.39E+01 peak memory=     397 mb tot_iter=    8592
 output: ex3_2.mt0
 sweep: tran tran953  begin, stop_t=  5.00E-09 #sweeps= 101 cpu clock= 1.39E+01
 sweep: tran tran953  end, cpu clock= 1.39E+01 peak memory=     397 mb
 dcop: begin dcop, cpu clock= 1.39E+01
 dcop: end dcop, cpu clock= 1.39E+01 peak memory=     397 mb tot_iter=    8601
 output: ex3_2.mt0
 sweep: tran tran954  begin, stop_t=  5.00E-09 #sweeps= 101 cpu clock= 1.39E+01
 sweep: tran tran954  end, cpu clock= 1.39E+01 peak memory=     397 mb
 dcop: begin dcop, cpu clock= 1.39E+01
 dcop: end dcop, cpu clock= 1.39E+01 peak memory=     397 mb tot_iter=    8610
 output: ex3_2.mt0
 sweep: tran tran955  begin, stop_t=  5.00E-09 #sweeps= 101 cpu clock= 1.39E+01
 sweep: tran tran955  end, cpu clock= 1.39E+01 peak memory=     397 mb
 dcop: begin dcop, cpu clock= 1.39E+01
 dcop: end dcop, cpu clock= 1.39E+01 peak memory=     397 mb tot_iter=    8619
 output: ex3_2.mt0
 sweep: tran tran956  begin, stop_t=  5.00E-09 #sweeps= 101 cpu clock= 1.39E+01
 sweep: tran tran956  end, cpu clock= 1.39E+01 peak memory=     397 mb
 dcop: begin dcop, cpu clock= 1.39E+01
 dcop: end dcop, cpu clock= 1.39E+01 peak memory=     397 mb tot_iter=    8628
 output: ex3_2.mt0
 sweep: tran tran957  begin, stop_t=  5.00E-09 #sweeps= 101 cpu clock= 1.39E+01
 sweep: tran tran957  end, cpu clock= 1.39E+01 peak memory=     397 mb
 dcop: begin dcop, cpu clock= 1.39E+01
 dcop: end dcop, cpu clock= 1.39E+01 peak memory=     397 mb tot_iter=    8637
 output: ex3_2.mt0
 sweep: tran tran958  begin, stop_t=  5.00E-09 #sweeps= 101 cpu clock= 1.39E+01
 sweep: tran tran958  end, cpu clock= 1.39E+01 peak memory=     397 mb
 dcop: begin dcop, cpu clock= 1.39E+01
 dcop: end dcop, cpu clock= 1.39E+01 peak memory=     397 mb tot_iter=    8646
 output: ex3_2.mt0
 sweep: tran tran959  begin, stop_t=  5.00E-09 #sweeps= 101 cpu clock= 1.40E+01
 sweep: tran tran959  end, cpu clock= 1.40E+01 peak memory=     397 mb
 dcop: begin dcop, cpu clock= 1.40E+01
 dcop: end dcop, cpu clock= 1.40E+01 peak memory=     397 mb tot_iter=    8655
 output: ex3_2.mt0
 sweep: tran tran960  begin, stop_t=  5.00E-09 #sweeps= 101 cpu clock= 1.40E+01
 sweep: tran tran960  end, cpu clock= 1.40E+01 peak memory=     397 mb
 dcop: begin dcop, cpu clock= 1.40E+01
 dcop: end dcop, cpu clock= 1.40E+01 peak memory=     397 mb tot_iter=    8664
 output: ex3_2.mt0
 sweep: tran tran961  begin, stop_t=  5.00E-09 #sweeps= 101 cpu clock= 1.40E+01
 sweep: tran tran961  end, cpu clock= 1.40E+01 peak memory=     397 mb
 dcop: begin dcop, cpu clock= 1.40E+01
 dcop: end dcop, cpu clock= 1.40E+01 peak memory=     397 mb tot_iter=    8673
 output: ex3_2.mt0
 sweep: tran tran962  begin, stop_t=  5.00E-09 #sweeps= 101 cpu clock= 1.40E+01
 sweep: tran tran962  end, cpu clock= 1.40E+01 peak memory=     397 mb
 dcop: begin dcop, cpu clock= 1.40E+01
 dcop: end dcop, cpu clock= 1.40E+01 peak memory=     397 mb tot_iter=    8682
 output: ex3_2.mt0
 sweep: tran tran963  begin, stop_t=  5.00E-09 #sweeps= 101 cpu clock= 1.40E+01
 sweep: tran tran963  end, cpu clock= 1.40E+01 peak memory=     397 mb
 dcop: begin dcop, cpu clock= 1.40E+01
 dcop: end dcop, cpu clock= 1.40E+01 peak memory=     397 mb tot_iter=    8691
 output: ex3_2.mt0
 sweep: tran tran964  begin, stop_t=  5.00E-09 #sweeps= 101 cpu clock= 1.40E+01
 sweep: tran tran964  end, cpu clock= 1.40E+01 peak memory=     397 mb
 dcop: begin dcop, cpu clock= 1.40E+01
 dcop: end dcop, cpu clock= 1.40E+01 peak memory=     397 mb tot_iter=    8700
 output: ex3_2.mt0
 sweep: tran tran965  begin, stop_t=  5.00E-09 #sweeps= 101 cpu clock= 1.40E+01
 sweep: tran tran965  end, cpu clock= 1.40E+01 peak memory=     397 mb
 dcop: begin dcop, cpu clock= 1.40E+01
 dcop: end dcop, cpu clock= 1.40E+01 peak memory=     397 mb tot_iter=    8709
 output: ex3_2.mt0
 sweep: tran tran966  begin, stop_t=  5.00E-09 #sweeps= 101 cpu clock= 1.40E+01
 sweep: tran tran966  end, cpu clock= 1.40E+01 peak memory=     397 mb
 dcop: begin dcop, cpu clock= 1.40E+01
 dcop: end dcop, cpu clock= 1.40E+01 peak memory=     397 mb tot_iter=    8718
 output: ex3_2.mt0
 sweep: tran tran967  begin, stop_t=  5.00E-09 #sweeps= 101 cpu clock= 1.40E+01
 sweep: tran tran967  end, cpu clock= 1.41E+01 peak memory=     397 mb
 dcop: begin dcop, cpu clock= 1.41E+01
 dcop: end dcop, cpu clock= 1.41E+01 peak memory=     397 mb tot_iter=    8727
 output: ex3_2.mt0
 sweep: tran tran968  begin, stop_t=  5.00E-09 #sweeps= 101 cpu clock= 1.41E+01
 sweep: tran tran968  end, cpu clock= 1.41E+01 peak memory=     397 mb
 dcop: begin dcop, cpu clock= 1.41E+01
 dcop: end dcop, cpu clock= 1.41E+01 peak memory=     397 mb tot_iter=    8736
 output: ex3_2.mt0
 sweep: tran tran969  begin, stop_t=  5.00E-09 #sweeps= 101 cpu clock= 1.41E+01
 sweep: tran tran969  end, cpu clock= 1.41E+01 peak memory=     397 mb
 dcop: begin dcop, cpu clock= 1.41E+01
 dcop: end dcop, cpu clock= 1.41E+01 peak memory=     397 mb tot_iter=    8745
 output: ex3_2.mt0
 sweep: tran tran970  begin, stop_t=  5.00E-09 #sweeps= 101 cpu clock= 1.41E+01
 sweep: tran tran970  end, cpu clock= 1.41E+01 peak memory=     397 mb
 dcop: begin dcop, cpu clock= 1.41E+01
 dcop: end dcop, cpu clock= 1.41E+01 peak memory=     397 mb tot_iter=    8754
 output: ex3_2.mt0
 sweep: tran tran971  begin, stop_t=  5.00E-09 #sweeps= 101 cpu clock= 1.41E+01
 sweep: tran tran971  end, cpu clock= 1.41E+01 peak memory=     397 mb
 dcop: begin dcop, cpu clock= 1.41E+01
 dcop: end dcop, cpu clock= 1.41E+01 peak memory=     397 mb tot_iter=    8763
 output: ex3_2.mt0
 sweep: tran tran972  begin, stop_t=  5.00E-09 #sweeps= 101 cpu clock= 1.41E+01
 sweep: tran tran972  end, cpu clock= 1.41E+01 peak memory=     397 mb
 dcop: begin dcop, cpu clock= 1.41E+01
 dcop: end dcop, cpu clock= 1.41E+01 peak memory=     397 mb tot_iter=    8772
 output: ex3_2.mt0
 sweep: tran tran973  begin, stop_t=  5.00E-09 #sweeps= 101 cpu clock= 1.41E+01
 sweep: tran tran973  end, cpu clock= 1.41E+01 peak memory=     397 mb
 dcop: begin dcop, cpu clock= 1.41E+01
 dcop: end dcop, cpu clock= 1.41E+01 peak memory=     397 mb tot_iter=    8781
 output: ex3_2.mt0
 sweep: tran tran974  begin, stop_t=  5.00E-09 #sweeps= 101 cpu clock= 1.41E+01
 sweep: tran tran974  end, cpu clock= 1.41E+01 peak memory=     397 mb
 dcop: begin dcop, cpu clock= 1.41E+01
 dcop: end dcop, cpu clock= 1.41E+01 peak memory=     397 mb tot_iter=    8790
 output: ex3_2.mt0
 sweep: tran tran975  begin, stop_t=  5.00E-09 #sweeps= 101 cpu clock= 1.41E+01
 sweep: tran tran975  end, cpu clock= 1.42E+01 peak memory=     397 mb
 dcop: begin dcop, cpu clock= 1.42E+01
 dcop: end dcop, cpu clock= 1.42E+01 peak memory=     397 mb tot_iter=    8799
 output: ex3_2.mt0
 sweep: tran tran976  begin, stop_t=  5.00E-09 #sweeps= 101 cpu clock= 1.42E+01
 sweep: tran tran976  end, cpu clock= 1.42E+01 peak memory=     397 mb
 dcop: begin dcop, cpu clock= 1.42E+01
 dcop: end dcop, cpu clock= 1.42E+01 peak memory=     397 mb tot_iter=    8808
 output: ex3_2.mt0
 sweep: tran tran977  begin, stop_t=  5.00E-09 #sweeps= 101 cpu clock= 1.42E+01
 sweep: tran tran977  end, cpu clock= 1.42E+01 peak memory=     397 mb
 dcop: begin dcop, cpu clock= 1.42E+01
 dcop: end dcop, cpu clock= 1.42E+01 peak memory=     397 mb tot_iter=    8817
 output: ex3_2.mt0
 sweep: tran tran978  begin, stop_t=  5.00E-09 #sweeps= 101 cpu clock= 1.42E+01
 sweep: tran tran978  end, cpu clock= 1.42E+01 peak memory=     397 mb
 dcop: begin dcop, cpu clock= 1.42E+01
 dcop: end dcop, cpu clock= 1.42E+01 peak memory=     397 mb tot_iter=    8826
 output: ex3_2.mt0
 sweep: tran tran979  begin, stop_t=  5.00E-09 #sweeps= 101 cpu clock= 1.42E+01
 sweep: tran tran979  end, cpu clock= 1.42E+01 peak memory=     397 mb
 dcop: begin dcop, cpu clock= 1.42E+01
 dcop: end dcop, cpu clock= 1.42E+01 peak memory=     397 mb tot_iter=    8835
 output: ex3_2.mt0
 sweep: tran tran980  begin, stop_t=  5.00E-09 #sweeps= 101 cpu clock= 1.42E+01
 sweep: tran tran980  end, cpu clock= 1.42E+01 peak memory=     397 mb
 dcop: begin dcop, cpu clock= 1.42E+01
 dcop: end dcop, cpu clock= 1.42E+01 peak memory=     397 mb tot_iter=    8844
 output: ex3_2.mt0
 sweep: tran tran981  begin, stop_t=  5.00E-09 #sweeps= 101 cpu clock= 1.42E+01
 sweep: tran tran981  end, cpu clock= 1.42E+01 peak memory=     397 mb
 dcop: begin dcop, cpu clock= 1.42E+01
 dcop: end dcop, cpu clock= 1.42E+01 peak memory=     397 mb tot_iter=    8853
 output: ex3_2.mt0
 sweep: tran tran982  begin, stop_t=  5.00E-09 #sweeps= 101 cpu clock= 1.42E+01
 sweep: tran tran982  end, cpu clock= 1.42E+01 peak memory=     397 mb
 dcop: begin dcop, cpu clock= 1.42E+01
 dcop: end dcop, cpu clock= 1.42E+01 peak memory=     397 mb tot_iter=    8862
 output: ex3_2.mt0
 sweep: tran tran983  begin, stop_t=  5.00E-09 #sweeps= 101 cpu clock= 1.43E+01
 sweep: tran tran983  end, cpu clock= 1.43E+01 peak memory=     397 mb
 dcop: begin dcop, cpu clock= 1.43E+01
 dcop: end dcop, cpu clock= 1.43E+01 peak memory=     397 mb tot_iter=    8871
 output: ex3_2.mt0
 sweep: tran tran984  begin, stop_t=  5.00E-09 #sweeps= 101 cpu clock= 1.43E+01
 sweep: tran tran984  end, cpu clock= 1.43E+01 peak memory=     397 mb
 dcop: begin dcop, cpu clock= 1.43E+01
 dcop: end dcop, cpu clock= 1.43E+01 peak memory=     397 mb tot_iter=    8880
 output: ex3_2.mt0
 sweep: tran tran985  begin, stop_t=  5.00E-09 #sweeps= 101 cpu clock= 1.43E+01
 sweep: tran tran985  end, cpu clock= 1.43E+01 peak memory=     397 mb
 dcop: begin dcop, cpu clock= 1.43E+01
 dcop: end dcop, cpu clock= 1.43E+01 peak memory=     397 mb tot_iter=    8889
 output: ex3_2.mt0
 sweep: tran tran986  begin, stop_t=  5.00E-09 #sweeps= 101 cpu clock= 1.43E+01
 sweep: tran tran986  end, cpu clock= 1.43E+01 peak memory=     397 mb
 dcop: begin dcop, cpu clock= 1.43E+01
 dcop: end dcop, cpu clock= 1.43E+01 peak memory=     397 mb tot_iter=    8898
 output: ex3_2.mt0
 sweep: tran tran987  begin, stop_t=  5.00E-09 #sweeps= 101 cpu clock= 1.43E+01
 sweep: tran tran987  end, cpu clock= 1.43E+01 peak memory=     397 mb
 dcop: begin dcop, cpu clock= 1.43E+01
 dcop: end dcop, cpu clock= 1.43E+01 peak memory=     397 mb tot_iter=    8907
 output: ex3_2.mt0
 sweep: tran tran988  begin, stop_t=  5.00E-09 #sweeps= 101 cpu clock= 1.43E+01
 sweep: tran tran988  end, cpu clock= 1.43E+01 peak memory=     397 mb
 dcop: begin dcop, cpu clock= 1.43E+01
 dcop: end dcop, cpu clock= 1.43E+01 peak memory=     397 mb tot_iter=    8916
 output: ex3_2.mt0
 sweep: tran tran989  begin, stop_t=  5.00E-09 #sweeps= 101 cpu clock= 1.43E+01
 sweep: tran tran989  end, cpu clock= 1.43E+01 peak memory=     397 mb
 dcop: begin dcop, cpu clock= 1.43E+01
 dcop: end dcop, cpu clock= 1.43E+01 peak memory=     397 mb tot_iter=    8925
 output: ex3_2.mt0
 sweep: tran tran990  begin, stop_t=  5.00E-09 #sweeps= 101 cpu clock= 1.43E+01
 sweep: tran tran990  end, cpu clock= 1.43E+01 peak memory=     397 mb
 dcop: begin dcop, cpu clock= 1.44E+01
 dcop: end dcop, cpu clock= 1.44E+01 peak memory=     397 mb tot_iter=    8934
 output: ex3_2.mt0
 sweep: tran tran991  begin, stop_t=  5.00E-09 #sweeps= 101 cpu clock= 1.44E+01
 sweep: tran tran991  end, cpu clock= 1.44E+01 peak memory=     397 mb
 dcop: begin dcop, cpu clock= 1.44E+01
 dcop: end dcop, cpu clock= 1.44E+01 peak memory=     397 mb tot_iter=    8943
 output: ex3_2.mt0
 sweep: tran tran992  begin, stop_t=  5.00E-09 #sweeps= 101 cpu clock= 1.44E+01
 sweep: tran tran992  end, cpu clock= 1.44E+01 peak memory=     397 mb
 dcop: begin dcop, cpu clock= 1.44E+01
 dcop: end dcop, cpu clock= 1.44E+01 peak memory=     397 mb tot_iter=    8952
 output: ex3_2.mt0
 sweep: tran tran993  begin, stop_t=  5.00E-09 #sweeps= 101 cpu clock= 1.44E+01
 sweep: tran tran993  end, cpu clock= 1.44E+01 peak memory=     397 mb
 dcop: begin dcop, cpu clock= 1.44E+01
 dcop: end dcop, cpu clock= 1.44E+01 peak memory=     397 mb tot_iter=    8961
 output: ex3_2.mt0
 sweep: tran tran994  begin, stop_t=  5.00E-09 #sweeps= 101 cpu clock= 1.44E+01
 sweep: tran tran994  end, cpu clock= 1.44E+01 peak memory=     397 mb
 dcop: begin dcop, cpu clock= 1.44E+01
 dcop: end dcop, cpu clock= 1.44E+01 peak memory=     397 mb tot_iter=    8970
 output: ex3_2.mt0
 sweep: tran tran995  begin, stop_t=  5.00E-09 #sweeps= 101 cpu clock= 1.44E+01
 sweep: tran tran995  end, cpu clock= 1.44E+01 peak memory=     397 mb
 dcop: begin dcop, cpu clock= 1.44E+01
 dcop: end dcop, cpu clock= 1.44E+01 peak memory=     397 mb tot_iter=    8979
 output: ex3_2.mt0
 sweep: tran tran996  begin, stop_t=  5.00E-09 #sweeps= 101 cpu clock= 1.44E+01
 sweep: tran tran996  end, cpu clock= 1.44E+01 peak memory=     397 mb
 dcop: begin dcop, cpu clock= 1.44E+01
 dcop: end dcop, cpu clock= 1.44E+01 peak memory=     397 mb tot_iter=    8988
 output: ex3_2.mt0
 sweep: tran tran997  begin, stop_t=  5.00E-09 #sweeps= 101 cpu clock= 1.44E+01
 sweep: tran tran997  end, cpu clock= 1.44E+01 peak memory=     397 mb
 dcop: begin dcop, cpu clock= 1.44E+01
 dcop: end dcop, cpu clock= 1.45E+01 peak memory=     397 mb tot_iter=    8997
 output: ex3_2.mt0
 sweep: tran tran998  begin, stop_t=  5.00E-09 #sweeps= 101 cpu clock= 1.45E+01
 sweep: tran tran998  end, cpu clock= 1.45E+01 peak memory=     397 mb
 dcop: begin dcop, cpu clock= 1.45E+01
 dcop: end dcop, cpu clock= 1.45E+01 peak memory=     397 mb tot_iter=    9006
 output: ex3_2.mt0
 sweep: tran tran999  begin, stop_t=  5.00E-09 #sweeps= 101 cpu clock= 1.45E+01
 sweep: tran tran999  end, cpu clock= 1.45E+01 peak memory=     397 mb
 dcop: begin dcop, cpu clock= 1.45E+01
 dcop: end dcop, cpu clock= 1.45E+01 peak memory=     397 mb tot_iter=    9015
 output: ex3_2.mt0
 sweep: tran tran1000 begin, stop_t=  5.00E-09 #sweeps= 101 cpu clock= 1.45E+01
 sweep: tran tran1000 end, cpu clock= 1.45E+01 peak memory=     397 mb
 sweep: monte_carlo     monte_carlo     1 end
>info:         ***** hspice job concluded
 lic: Release hspice token(s)
