$DATA1 SOURCE='HSPICE' VERSION='Q-2020.03-SP2-2 linux64' PARAM_COUNT=1
$OPTION MEASFORM=1
$index=1 is a nominal sample in Monte Carlo.
.TITLE '.title sa latch threshold voltage variation'
index v_final read_0_success temper alter#
1    0.1346020    1.0000000   25.0000000 1
2    0.1382188    1.0000000   25.0000000 1
3    0.1210922    1.0000000   25.0000000 1
4    0.1492515    1.0000000   25.0000000 1
5    0.1173485    1.0000000   25.0000000 1
6    0.1520900    1.0000000   25.0000000 1
7    0.1330815    1.0000000   25.0000000 1
8    0.1266580    1.0000000   25.0000000 1
9    0.1342510    1.0000000   25.0000000 1
10    0.1249153    1.0000000   25.0000000 1
11    0.1437405    1.0000000   25.0000000 1
12    0.1237109    1.0000000   25.0000000 1
13    0.1120080    1.0000000   25.0000000 1
14    0.1233452    1.0000000   25.0000000 1
15    0.1596423    1.0000000   25.0000000 1
16    0.1403292    1.0000000   25.0000000 1
17    0.1493235    1.0000000   25.0000000 1
18    0.1445645    1.0000000   25.0000000 1
19    0.1348185    1.0000000   25.0000000 1
20    0.1575566    1.0000000   25.0000000 1
21    0.1217446    1.0000000   25.0000000 1
22    0.1559071    1.0000000   25.0000000 1
23    0.1253915    1.0000000   25.0000000 1
24    0.1440434    1.0000000   25.0000000 1
25    0.1409037    1.0000000   25.0000000 1
26    0.1247821    1.0000000   25.0000000 1
27    0.1277821    1.0000000   25.0000000 1
28    0.1171488    1.0000000   25.0000000 1
29    0.1251924    1.0000000   25.0000000 1
30    0.1279513    1.0000000   25.0000000 1
31    0.1464897    1.0000000   25.0000000 1
32    0.1387482    1.0000000   25.0000000 1
33    0.1332629    1.0000000   25.0000000 1
34    0.1385312    1.0000000   25.0000000 1
35    0.1424705    1.0000000   25.0000000 1
36    0.1404089    1.0000000   25.0000000 1
37    0.1114721    1.0000000   25.0000000 1
38    0.1511919    1.0000000   25.0000000 1
39    0.1320710    1.0000000   25.0000000 1
40    0.1341433    1.0000000   25.0000000 1
41    0.1350107    1.0000000   25.0000000 1
42    0.1383650    1.0000000   25.0000000 1
43    0.1308528    1.0000000   25.0000000 1
44    0.1449795    1.0000000   25.0000000 1
45    0.1299300    1.0000000   25.0000000 1
46    0.1244622    1.0000000   25.0000000 1
47    0.1491738    1.0000000   25.0000000 1
48    0.1497390    1.0000000   25.0000000 1
49    0.1516796    1.0000000   25.0000000 1
50    0.1307951    1.0000000   25.0000000 1
51    0.1394805    1.0000000   25.0000000 1
52    0.1307659    1.0000000   25.0000000 1
53    0.1377854    1.0000000   25.0000000 1
54    0.1448479    1.0000000   25.0000000 1
55    0.1349478    1.0000000   25.0000000 1
56    0.1275251    1.0000000   25.0000000 1
57    0.1435829    1.0000000   25.0000000 1
58    0.1615219    1.0000000   25.0000000 1
59    0.1380587    1.0000000   25.0000000 1
60    0.1202865    1.0000000   25.0000000 1
61    0.1329238    1.0000000   25.0000000 1
62    0.1208737    1.0000000   25.0000000 1
63    0.1156218    1.0000000   25.0000000 1
64    0.1294682    1.0000000   25.0000000 1
65    0.1324006    1.0000000   25.0000000 1
66    0.1372626    1.0000000   25.0000000 1
67    0.1515395    1.0000000   25.0000000 1
68    0.1428535    1.0000000   25.0000000 1
69    0.1425678    1.0000000   25.0000000 1
70    0.1262830    1.0000000   25.0000000 1
71    0.1340059    1.0000000   25.0000000 1
72    0.1498370    1.0000000   25.0000000 1
73    0.1399372    1.0000000   25.0000000 1
74    0.1440946    1.0000000   25.0000000 1
75    0.1381820    1.0000000   25.0000000 1
76    0.1334773    1.0000000   25.0000000 1
77    0.1395207    1.0000000   25.0000000 1
78    0.1241535    1.0000000   25.0000000 1
79    0.1479158    1.0000000   25.0000000 1
80    0.1169730    1.0000000   25.0000000 1
81    0.1407445    1.0000000   25.0000000 1
82    0.1419785    1.0000000   25.0000000 1
83    0.1187609    1.0000000   25.0000000 1
84    0.1326806    1.0000000   25.0000000 1
85    0.1196377    1.0000000   25.0000000 1
86    0.1214960    1.0000000   25.0000000 1
87    0.1311420    1.0000000   25.0000000 1
88    0.1292426    1.0000000   25.0000000 1
89    0.1296560    1.0000000   25.0000000 1
90    0.1221930    1.0000000   25.0000000 1
91    0.1212481    1.0000000   25.0000000 1
92    0.1466419    1.0000000   25.0000000 1
93    0.1258891    1.0000000   25.0000000 1
94    0.1243031    1.0000000   25.0000000 1
95    0.1238369    1.0000000   25.0000000 1
96    0.1284004    1.0000000   25.0000000 1
97    0.1147454    1.0000000   25.0000000 1
98    0.1581621    1.0000000   25.0000000 1
99    0.1249879    1.0000000   25.0000000 1
100    0.1366864    1.0000000   25.0000000 1
101    0.1370087    1.0000000   25.0000000 1
102    0.1263044    1.0000000   25.0000000 1
103    0.1462154    1.0000000   25.0000000 1
104    0.1442222    1.0000000   25.0000000 1
105    0.1458179    1.0000000   25.0000000 1
106    0.1511826    1.0000000   25.0000000 1
107    0.1322003    1.0000000   25.0000000 1
108    0.1446372    1.0000000   25.0000000 1
109    0.1199289    1.0000000   25.0000000 1
110    0.1407954    1.0000000   25.0000000 1
111    0.1311213    1.0000000   25.0000000 1
112    0.1297828    1.0000000   25.0000000 1
113    0.1291894    1.0000000   25.0000000 1
114    0.1169595    1.0000000   25.0000000 1
115    0.1486394    1.0000000   25.0000000 1
116    0.1283660    1.0000000   25.0000000 1
117    0.1421891    1.0000000   25.0000000 1
118    0.1472933    1.0000000   25.0000000 1
119    0.1325485    1.0000000   25.0000000 1
120    0.1352505    1.0000000   25.0000000 1
121    0.1498635    1.0000000   25.0000000 1
122    0.1507747    1.0000000   25.0000000 1
123    0.1275841    1.0000000   25.0000000 1
124    0.1525584    1.0000000   25.0000000 1
125    0.1581044    1.0000000   25.0000000 1
126    0.1321532    1.0000000   25.0000000 1
127    0.1458912    1.0000000   25.0000000 1
128    0.1334363    1.0000000   25.0000000 1
129    0.1228648    1.0000000   25.0000000 1
130    0.1388425    1.0000000   25.0000000 1
131    0.1494890    1.0000000   25.0000000 1
132    0.1202346    1.0000000   25.0000000 1
133    0.1294248    1.0000000   25.0000000 1
134    0.1133248    1.0000000   25.0000000 1
135    0.1298367    1.0000000   25.0000000 1
136    0.1162514    1.0000000   25.0000000 1
137    0.1521683    1.0000000   25.0000000 1
138    0.1395054    1.0000000   25.0000000 1
139    0.1391475    1.0000000   25.0000000 1
140    0.1203780    1.0000000   25.0000000 1
141    0.1367196    1.0000000   25.0000000 1
142    0.1384748    1.0000000   25.0000000 1
143    0.1479885    1.0000000   25.0000000 1
144    0.1288826    1.0000000   25.0000000 1
145    0.1175129    1.0000000   25.0000000 1
146    0.1460401    1.0000000   25.0000000 1
147    0.1465517    1.0000000   25.0000000 1
148    0.1415863    1.0000000   25.0000000 1
149    0.1410286    1.0000000   25.0000000 1
150    0.1320946    1.0000000   25.0000000 1
151    0.1343067    1.0000000   25.0000000 1
152    0.1483571    1.0000000   25.0000000 1
153    0.1137485    1.0000000   25.0000000 1
154    0.1314524    1.0000000   25.0000000 1
155    0.1388759    1.0000000   25.0000000 1
156    0.1256682    1.0000000   25.0000000 1
157    0.1537269    1.0000000   25.0000000 1
158    0.1277909    1.0000000   25.0000000 1
159    0.1421476    1.0000000   25.0000000 1
160    0.1190304    1.0000000   25.0000000 1
161    0.1231842    1.0000000   25.0000000 1
162    0.1506774    1.0000000   25.0000000 1
163    0.1628660    1.0000000   25.0000000 1
164    0.1456992    1.0000000   25.0000000 1
165    0.1422299    1.0000000   25.0000000 1
166    0.1689358    1.0000000   25.0000000 1
167    0.1525912    1.0000000   25.0000000 1
168    0.1469349    1.0000000   25.0000000 1
169    0.1348499    1.0000000   25.0000000 1
170    0.1275404    1.0000000   25.0000000 1
171    0.1421514    1.0000000   25.0000000 1
172    0.1226316    1.0000000   25.0000000 1
173    0.1487824    1.0000000   25.0000000 1
174    0.1219410    1.0000000   25.0000000 1
175    0.1480779    1.0000000   25.0000000 1
176    0.1302910    1.0000000   25.0000000 1
177    0.1428252    1.0000000   25.0000000 1
178    0.1169866    1.0000000   25.0000000 1
179    0.1248907    1.0000000   25.0000000 1
180    0.1361394    1.0000000   25.0000000 1
181    0.1311368    1.0000000   25.0000000 1
182    0.1554593    1.0000000   25.0000000 1
183    0.1394795    1.0000000   25.0000000 1
184    0.1245929    1.0000000   25.0000000 1
185    0.1386889    1.0000000   25.0000000 1
186    0.1349848    1.0000000   25.0000000 1
187    0.1227573    1.0000000   25.0000000 1
188    0.1357840    1.0000000   25.0000000 1
189    0.1212141    1.0000000   25.0000000 1
190    0.1487788    1.0000000   25.0000000 1
191    0.1398110    1.0000000   25.0000000 1
192    0.1298099    1.0000000   25.0000000 1
193    0.1578206    1.0000000   25.0000000 1
194    0.1318920    1.0000000   25.0000000 1
195    0.1350129    1.0000000   25.0000000 1
196    0.1227046    1.0000000   25.0000000 1
197    0.1360605    1.0000000   25.0000000 1
198    0.1246873    1.0000000   25.0000000 1
199    0.1217713    1.0000000   25.0000000 1
200    0.1161424    1.0000000   25.0000000 1
201    0.1282469    1.0000000   25.0000000 1
202    0.1461561    1.0000000   25.0000000 1
203    0.1418520    1.0000000   25.0000000 1
204    0.1338464    1.0000000   25.0000000 1
205    0.1383623    1.0000000   25.0000000 1
206    0.1423403    1.0000000   25.0000000 1
207    0.1279361    1.0000000   25.0000000 1
208    0.1389109    1.0000000   25.0000000 1
209    0.1388294    1.0000000   25.0000000 1
210    0.1284078    1.0000000   25.0000000 1
211    0.1617211    1.0000000   25.0000000 1
212    0.1285400    1.0000000   25.0000000 1
213    0.1169999    1.0000000   25.0000000 1
214    0.1373677    1.0000000   25.0000000 1
215    0.1223386    1.0000000   25.0000000 1
216    0.1438023    1.0000000   25.0000000 1
217    0.1373738    1.0000000   25.0000000 1
218    0.1402274    1.0000000   25.0000000 1
219    0.1468143    1.0000000   25.0000000 1
220    0.1356617    1.0000000   25.0000000 1
221    0.1281283    1.0000000   25.0000000 1
222    0.1207388    1.0000000   25.0000000 1
223    0.1381359    1.0000000   25.0000000 1
224    0.1411364    1.0000000   25.0000000 1
225    0.1403481    1.0000000   25.0000000 1
226    0.1346149    1.0000000   25.0000000 1
227    0.1135765    1.0000000   25.0000000 1
228    0.1234179    1.0000000   25.0000000 1
229    0.1404016    1.0000000   25.0000000 1
230    0.1522312    1.0000000   25.0000000 1
231    0.1298815    1.0000000   25.0000000 1
232    0.1215597    1.0000000   25.0000000 1
233    0.1271692    1.0000000   25.0000000 1
234    0.1319428    1.0000000   25.0000000 1
235    0.1143904    1.0000000   25.0000000 1
236    0.1271359    1.0000000   25.0000000 1
237    0.1393875    1.0000000   25.0000000 1
238    0.1278627    1.0000000   25.0000000 1
239    0.1405051    1.0000000   25.0000000 1
240    0.1489562    1.0000000   25.0000000 1
241    0.1286370    1.0000000   25.0000000 1
242    0.1289248    1.0000000   25.0000000 1
243    0.1388603    1.0000000   25.0000000 1
244    0.1263666    1.0000000   25.0000000 1
245    0.1474593    1.0000000   25.0000000 1
246    0.1116802    1.0000000   25.0000000 1
247    0.1633308    1.0000000   25.0000000 1
248    0.1313555    1.0000000   25.0000000 1
249    0.1323262    1.0000000   25.0000000 1
250    0.1428103    1.0000000   25.0000000 1
251    0.1392072    1.0000000   25.0000000 1
252    0.1412046    1.0000000   25.0000000 1
253    0.1508382    1.0000000   25.0000000 1
254    0.1307943    1.0000000   25.0000000 1
255    0.1200330    1.0000000   25.0000000 1
256    0.1137095    1.0000000   25.0000000 1
257    0.1266514    1.0000000   25.0000000 1
258    0.1311986    1.0000000   25.0000000 1
259    0.1164108    1.0000000   25.0000000 1
260    0.1472757    1.0000000   25.0000000 1
261    0.1369105    1.0000000   25.0000000 1
262    0.1276115    1.0000000   25.0000000 1
263    0.1282340    1.0000000   25.0000000 1
264    0.1317046    1.0000000   25.0000000 1
265    0.1230111    1.0000000   25.0000000 1
266    0.1234463    1.0000000   25.0000000 1
267    0.1222427    1.0000000   25.0000000 1
268    0.1406056    1.0000000   25.0000000 1
269    0.1291705    1.0000000   25.0000000 1
270    0.1262038    1.0000000   25.0000000 1
271    0.1449944    1.0000000   25.0000000 1
272    0.1435738    1.0000000   25.0000000 1
273    0.1493179    1.0000000   25.0000000 1
274    0.1395606    1.0000000   25.0000000 1
275    0.1514709    1.0000000   25.0000000 1
276    0.1442127    1.0000000   25.0000000 1
277    0.1497097    1.0000000   25.0000000 1
278    0.1446337    1.0000000   25.0000000 1
279    0.1481379    1.0000000   25.0000000 1
280    0.1386556    1.0000000   25.0000000 1
281    0.1440435    1.0000000   25.0000000 1
282    0.1219613    1.0000000   25.0000000 1
283    0.1375709    1.0000000   25.0000000 1
284    0.1560939    1.0000000   25.0000000 1
285    0.1354636    1.0000000   25.0000000 1
286    0.1302855    1.0000000   25.0000000 1
287    0.1258174    1.0000000   25.0000000 1
288    0.1227814    1.0000000   25.0000000 1
289    0.1430367    1.0000000   25.0000000 1
290    0.1374560    1.0000000   25.0000000 1
291    0.1407271    1.0000000   25.0000000 1
292    0.1256844    1.0000000   25.0000000 1
293    0.1345151    1.0000000   25.0000000 1
294    0.1298486    1.0000000   25.0000000 1
295    0.1211797    1.0000000   25.0000000 1
296    0.1318634    1.0000000   25.0000000 1
297    0.1450279    1.0000000   25.0000000 1
298    0.1327819    1.0000000   25.0000000 1
299    0.1329320    1.0000000   25.0000000 1
300    0.1223031    1.0000000   25.0000000 1
301    0.1409109    1.0000000   25.0000000 1
302    0.1181267    1.0000000   25.0000000 1
303    0.1261763    1.0000000   25.0000000 1
304    0.1456544    1.0000000   25.0000000 1
305    0.1387587    1.0000000   25.0000000 1
306    0.1332214    1.0000000   25.0000000 1
307    0.1411165    1.0000000   25.0000000 1
308    0.1440269    1.0000000   25.0000000 1
309    0.1220566    1.0000000   25.0000000 1
310    0.1303026    1.0000000   25.0000000 1
311    0.1294400    1.0000000   25.0000000 1
312    0.1233308    1.0000000   25.0000000 1
313    0.1098495    1.0000000   25.0000000 1
314    0.1379873    1.0000000   25.0000000 1
315    0.1319499    1.0000000   25.0000000 1
316    0.1170611    1.0000000   25.0000000 1
317    0.1289420    1.0000000   25.0000000 1
318    0.1509661    1.0000000   25.0000000 1
319    0.1318489    1.0000000   25.0000000 1
320    0.1349293    1.0000000   25.0000000 1
321    0.1195182    1.0000000   25.0000000 1
322    0.1405415    1.0000000   25.0000000 1
323    0.1542966    1.0000000   25.0000000 1
324    0.1399929    1.0000000   25.0000000 1
325    0.1333338    1.0000000   25.0000000 1
326    0.1350158    1.0000000   25.0000000 1
327    0.1229970    1.0000000   25.0000000 1
328    0.1228254    1.0000000   25.0000000 1
329    0.1346236    1.0000000   25.0000000 1
330    0.1580111    1.0000000   25.0000000 1
331    0.1190847    1.0000000   25.0000000 1
332    0.1296129    1.0000000   25.0000000 1
333    0.1386707    1.0000000   25.0000000 1
334    0.1250869    1.0000000   25.0000000 1
335    0.1240157    1.0000000   25.0000000 1
336    0.1436346    1.0000000   25.0000000 1
337    0.1406492    1.0000000   25.0000000 1
338    0.1234758    1.0000000   25.0000000 1
339    0.1173860    1.0000000   25.0000000 1
340    0.1405983    1.0000000   25.0000000 1
341    0.1381442    1.0000000   25.0000000 1
342    0.1209236    1.0000000   25.0000000 1
343    0.1308405    1.0000000   25.0000000 1
344    0.1351288    1.0000000   25.0000000 1
345    0.1384473    1.0000000   25.0000000 1
346    0.1287760    1.0000000   25.0000000 1
347    0.1310508    1.0000000   25.0000000 1
348    0.1514183    1.0000000   25.0000000 1
349    0.1449152    1.0000000   25.0000000 1
350    0.1422321    1.0000000   25.0000000 1
351    0.1277636    1.0000000   25.0000000 1
352    0.1428998    1.0000000   25.0000000 1
353    0.1249820    1.0000000   25.0000000 1
354    0.1452231    1.0000000   25.0000000 1
355    0.1233619    1.0000000   25.0000000 1
356    0.1318830    1.0000000   25.0000000 1
357    0.1213852    1.0000000   25.0000000 1
358    0.1200744    1.0000000   25.0000000 1
359    0.1362917    1.0000000   25.0000000 1
360    0.1415232    1.0000000   25.0000000 1
361    0.1260601    1.0000000   25.0000000 1
362    0.1372183    1.0000000   25.0000000 1
363    0.1286486    1.0000000   25.0000000 1
364    0.1416525    1.0000000   25.0000000 1
365    0.1490196    1.0000000   25.0000000 1
366    0.1343134    1.0000000   25.0000000 1
367    0.1293012    1.0000000   25.0000000 1
368    0.1507053    1.0000000   25.0000000 1
369    0.1298501    1.0000000   25.0000000 1
370    0.1225709    1.0000000   25.0000000 1
371    0.1164581    1.0000000   25.0000000 1
372    0.1359630    1.0000000   25.0000000 1
373    0.1514389    1.0000000   25.0000000 1
374    0.1447666    1.0000000   25.0000000 1
375    0.1495252    1.0000000   25.0000000 1
376    0.1477717    1.0000000   25.0000000 1
377    0.1376634    1.0000000   25.0000000 1
378    0.1185847    1.0000000   25.0000000 1
379    0.1283786    1.0000000   25.0000000 1
380    0.1245807    1.0000000   25.0000000 1
381    0.1546969    1.0000000   25.0000000 1
382    0.1323749    1.0000000   25.0000000 1
383    0.1399511    1.0000000   25.0000000 1
384    0.1469815    1.0000000   25.0000000 1
385    0.1548617    1.0000000   25.0000000 1
386    0.1447604    1.0000000   25.0000000 1
387    0.1165187    1.0000000   25.0000000 1
388    0.1229577    1.0000000   25.0000000 1
389    0.1322121    1.0000000   25.0000000 1
390    0.1141922    1.0000000   25.0000000 1
391    0.1311351    1.0000000   25.0000000 1
392    0.1274799    1.0000000   25.0000000 1
393    0.1355871    1.0000000   25.0000000 1
394    0.1340150    1.0000000   25.0000000 1
395    0.1257462    1.0000000   25.0000000 1
396    0.1314476    1.0000000   25.0000000 1
397    0.1348590    1.0000000   25.0000000 1
398    0.1287667    1.0000000   25.0000000 1
399    0.1392438    1.0000000   25.0000000 1
400    0.1352473    1.0000000   25.0000000 1
401    0.1573163    1.0000000   25.0000000 1
402    0.1523307    1.0000000   25.0000000 1
403    0.1283923    1.0000000   25.0000000 1
404    0.1320770    1.0000000   25.0000000 1
405    0.1726554    1.0000000   25.0000000 1
406    0.1278917    1.0000000   25.0000000 1
407    0.1358697    1.0000000   25.0000000 1
408    0.1271559    1.0000000   25.0000000 1
409    0.1281795    1.0000000   25.0000000 1
410    0.1477253    1.0000000   25.0000000 1
411    0.1402929    1.0000000   25.0000000 1
412    0.1471073    1.0000000   25.0000000 1
413    0.1431561    1.0000000   25.0000000 1
414    0.1282757    1.0000000   25.0000000 1
415    0.1281638    1.0000000   25.0000000 1
416    0.1263854    1.0000000   25.0000000 1
417    0.1382146    1.0000000   25.0000000 1
418    0.1363836    1.0000000   25.0000000 1
419    0.1260486    1.0000000   25.0000000 1
420    0.1366617    1.0000000   25.0000000 1
421    0.1224986    1.0000000   25.0000000 1
422    0.1386038    1.0000000   25.0000000 1
423    0.1338779    1.0000000   25.0000000 1
424    0.1372521    1.0000000   25.0000000 1
425    0.1329171    1.0000000   25.0000000 1
426    0.1547283    1.0000000   25.0000000 1
427    0.1217300    1.0000000   25.0000000 1
428    0.1632488    1.0000000   25.0000000 1
429    0.1496838    1.0000000   25.0000000 1
430    0.1258112    1.0000000   25.0000000 1
431    0.1398073    1.0000000   25.0000000 1
432    0.1282538    1.0000000   25.0000000 1
433    0.1540986    1.0000000   25.0000000 1
434    0.1463921    1.0000000   25.0000000 1
435    0.1214585    1.0000000   25.0000000 1
436    0.1415705    1.0000000   25.0000000 1
437    0.1469663    1.0000000   25.0000000 1
438    0.1529588    1.0000000   25.0000000 1
439    0.1319843    1.0000000   25.0000000 1
440    0.1204395    1.0000000   25.0000000 1
441    0.1280305    1.0000000   25.0000000 1
442    0.1271997    1.0000000   25.0000000 1
443    0.1429341    1.0000000   25.0000000 1
444    0.1458994    1.0000000   25.0000000 1
445    0.1315191    1.0000000   25.0000000 1
446    0.1353898    1.0000000   25.0000000 1
447    0.1386526    1.0000000   25.0000000 1
448    0.1404325    1.0000000   25.0000000 1
449    0.1236396    1.0000000   25.0000000 1
450    0.1430798    1.0000000   25.0000000 1
451    0.1308158    1.0000000   25.0000000 1
452    0.1400065    1.0000000   25.0000000 1
453    0.1365647    1.0000000   25.0000000 1
454    0.1330767    1.0000000   25.0000000 1
455    0.1244029    1.0000000   25.0000000 1
456    0.1356379    1.0000000   25.0000000 1
457    0.1370968    1.0000000   25.0000000 1
458    0.1272963    1.0000000   25.0000000 1
459    0.1229281    1.0000000   25.0000000 1
460    0.1398518    1.0000000   25.0000000 1
461    0.1516879    1.0000000   25.0000000 1
462    0.1168248    1.0000000   25.0000000 1
463    0.1417602    1.0000000   25.0000000 1
464    0.1342493    1.0000000   25.0000000 1
465    0.1304185    1.0000000   25.0000000 1
466    0.1381628    1.0000000   25.0000000 1
467    0.1354647    1.0000000   25.0000000 1
468    0.1399472    1.0000000   25.0000000 1
469    0.1104164    1.0000000   25.0000000 1
470    0.1498889    1.0000000   25.0000000 1
471    0.1374354    1.0000000   25.0000000 1
472    0.1312030    1.0000000   25.0000000 1
473    0.1271456    1.0000000   25.0000000 1
474    0.1292868    1.0000000   25.0000000 1
475    0.1291248    1.0000000   25.0000000 1
476    0.1386283    1.0000000   25.0000000 1
477    0.1237963    1.0000000   25.0000000 1
478    0.1326986    1.0000000   25.0000000 1
479    0.1305328    1.0000000   25.0000000 1
480    0.1534239    1.0000000   25.0000000 1
481    0.1312127    1.0000000   25.0000000 1
482    0.1369583    1.0000000   25.0000000 1
483    0.1243961    1.0000000   25.0000000 1
484    0.1376838    1.0000000   25.0000000 1
485    0.1263067    1.0000000   25.0000000 1
486    0.1456976    1.0000000   25.0000000 1
487    0.1190863    1.0000000   25.0000000 1
488    0.1319216    1.0000000   25.0000000 1
489    0.1334335    1.0000000   25.0000000 1
490    0.1309794    1.0000000   25.0000000 1
491    0.1451716    1.0000000   25.0000000 1
492    0.1165305    1.0000000   25.0000000 1
493    0.1349009    1.0000000   25.0000000 1
494    0.1325812    1.0000000   25.0000000 1
495    0.1293390    1.0000000   25.0000000 1
496    0.1208111    1.0000000   25.0000000 1
497    0.1313023    1.0000000   25.0000000 1
498    0.1443072    1.0000000   25.0000000 1
499    0.1296749    1.0000000   25.0000000 1
500    0.1315252    1.0000000   25.0000000 1
501    0.1432662    1.0000000   25.0000000 1
502    0.1299000    1.0000000   25.0000000 1
503    0.1209759    1.0000000   25.0000000 1
504    0.1378986    1.0000000   25.0000000 1
505    0.1180171    1.0000000   25.0000000 1
506    0.1377137    1.0000000   25.0000000 1
507    0.1175237    1.0000000   25.0000000 1
508    0.1212853    1.0000000   25.0000000 1
509    0.1205471    1.0000000   25.0000000 1
510    0.1253349    1.0000000   25.0000000 1
511    0.1394997    1.0000000   25.0000000 1
512    0.1484901    1.0000000   25.0000000 1
513    0.1415248    1.0000000   25.0000000 1
514    0.1349860    1.0000000   25.0000000 1
515    0.1429359    1.0000000   25.0000000 1
516    0.1510520    1.0000000   25.0000000 1
517    0.1236835    1.0000000   25.0000000 1
518    0.1383787    1.0000000   25.0000000 1
519    0.1290816    1.0000000   25.0000000 1
520    0.1254061    1.0000000   25.0000000 1
521    0.1464179    1.0000000   25.0000000 1
522    0.1296132    1.0000000   25.0000000 1
523    0.1545032    1.0000000   25.0000000 1
524    0.1350467    1.0000000   25.0000000 1
525    0.1464259    1.0000000   25.0000000 1
526    0.1359537    1.0000000   25.0000000 1
527    0.1473893    1.0000000   25.0000000 1
528    0.1348340    1.0000000   25.0000000 1
529    0.1264263    1.0000000   25.0000000 1
530    0.1438368    1.0000000   25.0000000 1
531    0.1200189    1.0000000   25.0000000 1
532    0.1256993    1.0000000   25.0000000 1
533    0.1505412    1.0000000   25.0000000 1
534    0.1431284    1.0000000   25.0000000 1
535    0.1193839    1.0000000   25.0000000 1
536    0.1430057    1.0000000   25.0000000 1
537    0.1620540    1.0000000   25.0000000 1
538    0.1358383    1.0000000   25.0000000 1
539    0.1198793    1.0000000   25.0000000 1
540    0.1308407    1.0000000   25.0000000 1
541    0.1515452    1.0000000   25.0000000 1
542    0.1207622    1.0000000   25.0000000 1
543    0.1240115    1.0000000   25.0000000 1
544    0.1317067    1.0000000   25.0000000 1
545    0.1471997    1.0000000   25.0000000 1
546    0.1410918    1.0000000   25.0000000 1
547    0.1346387    1.0000000   25.0000000 1
548    0.1273877    1.0000000   25.0000000 1
549    0.1445725    1.0000000   25.0000000 1
550    0.1354559    1.0000000   25.0000000 1
551    0.1278036    1.0000000   25.0000000 1
552    0.1573170    1.0000000   25.0000000 1
553    0.1511739    1.0000000   25.0000000 1
554    0.1485461    1.0000000   25.0000000 1
555    0.1157338    1.0000000   25.0000000 1
556    0.1170317    1.0000000   25.0000000 1
557    0.1234392    1.0000000   25.0000000 1
558    0.1327250    1.0000000   25.0000000 1
559    0.1328599    1.0000000   25.0000000 1
560    0.1442313    1.0000000   25.0000000 1
561    0.1224815    1.0000000   25.0000000 1
562    0.1379449    1.0000000   25.0000000 1
563    0.1324167    1.0000000   25.0000000 1
564    0.1404675    1.0000000   25.0000000 1
565    0.1314296    1.0000000   25.0000000 1
566    0.1523910    1.0000000   25.0000000 1
567    0.1183745    1.0000000   25.0000000 1
568    0.1297984    1.0000000   25.0000000 1
569    0.1494514    1.0000000   25.0000000 1
570    0.1345097    1.0000000   25.0000000 1
571    0.1178486    1.0000000   25.0000000 1
572    0.1316690    1.0000000   25.0000000 1
573    0.1475782    1.0000000   25.0000000 1
574    0.1310686    1.0000000   25.0000000 1
575    0.1296188    1.0000000   25.0000000 1
576    0.1546286    1.0000000   25.0000000 1
577    0.1330986    1.0000000   25.0000000 1
578    0.1317946    1.0000000   25.0000000 1
579    0.1219617    1.0000000   25.0000000 1
580    0.1517737    1.0000000   25.0000000 1
581    0.1230018    1.0000000   25.0000000 1
582    0.1504135    1.0000000   25.0000000 1
583    0.1254041    1.0000000   25.0000000 1
584    0.1376389    1.0000000   25.0000000 1
585    0.1411122    1.0000000   25.0000000 1
586    0.1377780    1.0000000   25.0000000 1
587    0.1129228    1.0000000   25.0000000 1
588    0.1090122    1.0000000   25.0000000 1
589    0.1390994    1.0000000   25.0000000 1
590    0.1211590    1.0000000   25.0000000 1
591    0.1350957    1.0000000   25.0000000 1
592    0.1445995    1.0000000   25.0000000 1
593    0.1338137    1.0000000   25.0000000 1
594    0.1212836    1.0000000   25.0000000 1
595    0.1428978    1.0000000   25.0000000 1
596    0.1326724    1.0000000   25.0000000 1
597    0.1346335    1.0000000   25.0000000 1
598    0.1372896    1.0000000   25.0000000 1
599    0.1677722    1.0000000   25.0000000 1
600    0.1390031    1.0000000   25.0000000 1
601    0.1355921    1.0000000   25.0000000 1
602    0.1270108    1.0000000   25.0000000 1
603    0.1571968    1.0000000   25.0000000 1
604    0.1357507    1.0000000   25.0000000 1
605    0.1357656    1.0000000   25.0000000 1
606    0.1353209    1.0000000   25.0000000 1
607    0.1205040    1.0000000   25.0000000 1
608    0.1260741    1.0000000   25.0000000 1
609    0.1112155    1.0000000   25.0000000 1
610    0.1323898    1.0000000   25.0000000 1
611    0.1439176    1.0000000   25.0000000 1
612    0.1393702    1.0000000   25.0000000 1
613    0.1323404    1.0000000   25.0000000 1
614    0.1330949    1.0000000   25.0000000 1
615    0.1398103    1.0000000   25.0000000 1
616    0.1272241    1.0000000   25.0000000 1
617    0.1364648    1.0000000   25.0000000 1
618    0.1324103    1.0000000   25.0000000 1
619    0.1298411    1.0000000   25.0000000 1
620    0.1237247    1.0000000   25.0000000 1
621    0.1133135    1.0000000   25.0000000 1
622    0.1562639    1.0000000   25.0000000 1
623    0.1326052    1.0000000   25.0000000 1
624    0.1407764    1.0000000   25.0000000 1
625    0.1394779    1.0000000   25.0000000 1
626    0.1348336    1.0000000   25.0000000 1
627    0.1401102    1.0000000   25.0000000 1
628    0.1187110    1.0000000   25.0000000 1
629    0.1271761    1.0000000   25.0000000 1
630    0.1292047    1.0000000   25.0000000 1
631    0.1293109    1.0000000   25.0000000 1
632    0.1460678    1.0000000   25.0000000 1
633    0.1373684    1.0000000   25.0000000 1
634    0.1371844    1.0000000   25.0000000 1
635    0.1290807    1.0000000   25.0000000 1
636    0.1298789    1.0000000   25.0000000 1
637    0.1455495    1.0000000   25.0000000 1
638    0.1204852    1.0000000   25.0000000 1
639    0.1249801    1.0000000   25.0000000 1
640    0.1237327    1.0000000   25.0000000 1
641    0.1375076    1.0000000   25.0000000 1
642    0.1481683    1.0000000   25.0000000 1
643    0.1148944    1.0000000   25.0000000 1
644    0.1442877    1.0000000   25.0000000 1
645    0.1331956    1.0000000   25.0000000 1
646    0.1211643    1.0000000   25.0000000 1
647    0.1340249    1.0000000   25.0000000 1
648    0.1187147    1.0000000   25.0000000 1
649    0.1346554    1.0000000   25.0000000 1
650    0.1312898    1.0000000   25.0000000 1
651    0.1150184    1.0000000   25.0000000 1
652    0.1324423    1.0000000   25.0000000 1
653    0.1199118    1.0000000   25.0000000 1
654    0.1217261    1.0000000   25.0000000 1
655    0.1372509    1.0000000   25.0000000 1
656    0.1299194    1.0000000   25.0000000 1
657    0.1150937    1.0000000   25.0000000 1
658    0.1451358    1.0000000   25.0000000 1
659    0.1350029    1.0000000   25.0000000 1
660    0.1369516    1.0000000   25.0000000 1
661    0.1305744    1.0000000   25.0000000 1
662    0.1355574    1.0000000   25.0000000 1
663    0.1614231    1.0000000   25.0000000 1
664    0.1293464    1.0000000   25.0000000 1
665    0.1232062    1.0000000   25.0000000 1
666    0.1387834    1.0000000   25.0000000 1
667    0.1238431    1.0000000   25.0000000 1
668    0.1381113    1.0000000   25.0000000 1
669    0.1214610    1.0000000   25.0000000 1
670    0.1338395    1.0000000   25.0000000 1
671    0.1302203    1.0000000   25.0000000 1
672    0.1278086    1.0000000   25.0000000 1
673    0.1334724    1.0000000   25.0000000 1
674    0.1391675    1.0000000   25.0000000 1
675    0.1221690    1.0000000   25.0000000 1
676    0.1217623    1.0000000   25.0000000 1
677    0.1446520    1.0000000   25.0000000 1
678    0.1377213    1.0000000   25.0000000 1
679    0.1326307    1.0000000   25.0000000 1
680    0.1167225    1.0000000   25.0000000 1
681    0.1415818    1.0000000   25.0000000 1
682    0.1214730    1.0000000   25.0000000 1
683    0.1295580    1.0000000   25.0000000 1
684    0.1314415    1.0000000   25.0000000 1
685    0.1251721    1.0000000   25.0000000 1
686    0.1160768    1.0000000   25.0000000 1
687    0.1333991    1.0000000   25.0000000 1
688    0.1400112    1.0000000   25.0000000 1
689    0.1269205    1.0000000   25.0000000 1
690    0.1238009    1.0000000   25.0000000 1
691    0.1472397    1.0000000   25.0000000 1
692    0.1458401    1.0000000   25.0000000 1
693    0.1306074    1.0000000   25.0000000 1
694    0.1368555    1.0000000   25.0000000 1
695    0.1403510    1.0000000   25.0000000 1
696    0.1524012    1.0000000   25.0000000 1
697    0.1285281    1.0000000   25.0000000 1
698    0.1509303    1.0000000   25.0000000 1
699    0.1237581    1.0000000   25.0000000 1
700    0.1284094    1.0000000   25.0000000 1
701    0.1191400    1.0000000   25.0000000 1
702    0.1551429    1.0000000   25.0000000 1
703    0.1429758    1.0000000   25.0000000 1
704    0.1392855    1.0000000   25.0000000 1
705    0.1410903    1.0000000   25.0000000 1
706    0.1245611    1.0000000   25.0000000 1
707    0.1338252    1.0000000   25.0000000 1
708    0.1385761    1.0000000   25.0000000 1
709    0.1377445    1.0000000   25.0000000 1
710    0.1287701    1.0000000   25.0000000 1
711    0.1256510    1.0000000   25.0000000 1
712    0.1412585    1.0000000   25.0000000 1
713    0.1411914    1.0000000   25.0000000 1
714    0.1281837    1.0000000   25.0000000 1
715    0.1271602    1.0000000   25.0000000 1
716    0.1441510    1.0000000   25.0000000 1
717    0.1420835    1.0000000   25.0000000 1
718    0.1407452    1.0000000   25.0000000 1
719    0.1554652    1.0000000   25.0000000 1
720    0.1488321    1.0000000   25.0000000 1
721    0.1362637    1.0000000   25.0000000 1
722    0.1324210    1.0000000   25.0000000 1
723    0.1450550    1.0000000   25.0000000 1
724    0.1305606    1.0000000   25.0000000 1
725    0.1277492    1.0000000   25.0000000 1
726    0.1320342    1.0000000   25.0000000 1
727    0.1404810    1.0000000   25.0000000 1
728    0.1242837    1.0000000   25.0000000 1
729    0.1163801    1.0000000   25.0000000 1
730    0.1388149    1.0000000   25.0000000 1
731    0.1333867    1.0000000   25.0000000 1
732    0.1530453    1.0000000   25.0000000 1
733    0.1203908    1.0000000   25.0000000 1
734    0.1485501    1.0000000   25.0000000 1
735    0.1293098    1.0000000   25.0000000 1
736    0.1164402    1.0000000   25.0000000 1
737    0.1296598    1.0000000   25.0000000 1
738    0.1344855    1.0000000   25.0000000 1
739    0.1398610    1.0000000   25.0000000 1
740    0.1138355    1.0000000   25.0000000 1
741    0.1220173    1.0000000   25.0000000 1
742    0.1511220    1.0000000   25.0000000 1
743    0.1393221    1.0000000   25.0000000 1
744    0.1231550    1.0000000   25.0000000 1
745    0.1412040    1.0000000   25.0000000 1
746    0.1242147    1.0000000   25.0000000 1
747    0.1220845    1.0000000   25.0000000 1
748    0.1309185    1.0000000   25.0000000 1
749    0.1276725    1.0000000   25.0000000 1
750    0.1211818    1.0000000   25.0000000 1
751    0.1240271    1.0000000   25.0000000 1
752    0.1335349    1.0000000   25.0000000 1
753    0.1267225    1.0000000   25.0000000 1
754    0.1385044    1.0000000   25.0000000 1
755    0.1265639    1.0000000   25.0000000 1
756    0.1353519    1.0000000   25.0000000 1
757    0.1458340    1.0000000   25.0000000 1
758    0.1454982    1.0000000   25.0000000 1
759    0.1405313    1.0000000   25.0000000 1
760    0.1472180    1.0000000   25.0000000 1
761    0.1419461    1.0000000   25.0000000 1
762    0.1251730    1.0000000   25.0000000 1
763    0.1251379    1.0000000   25.0000000 1
764    0.1525027    1.0000000   25.0000000 1
765    0.1364852    1.0000000   25.0000000 1
766    0.1470454    1.0000000   25.0000000 1
767    0.1336798    1.0000000   25.0000000 1
768    0.1304436    1.0000000   25.0000000 1
769    0.1358005    1.0000000   25.0000000 1
770    0.1348270    1.0000000   25.0000000 1
771    0.1307516    1.0000000   25.0000000 1
772    0.1176553    1.0000000   25.0000000 1
773    0.1322547    1.0000000   25.0000000 1
774    0.1372190    1.0000000   25.0000000 1
775    0.1471950    1.0000000   25.0000000 1
776    0.1462032    1.0000000   25.0000000 1
777    0.1343888    1.0000000   25.0000000 1
778    0.1402233    1.0000000   25.0000000 1
779    0.1390710    1.0000000   25.0000000 1
780    0.1369348    1.0000000   25.0000000 1
781    0.1245380    1.0000000   25.0000000 1
782    0.1371915    1.0000000   25.0000000 1
783    0.1597690    1.0000000   25.0000000 1
784    0.1310285    1.0000000   25.0000000 1
785    0.1517138    1.0000000   25.0000000 1
786    0.1371927    1.0000000   25.0000000 1
787    0.1296219    1.0000000   25.0000000 1
788    0.1567204    1.0000000   25.0000000 1
789    0.1195380    1.0000000   25.0000000 1
790    0.1425423    1.0000000   25.0000000 1
791    0.1120018    1.0000000   25.0000000 1
792    0.1438465    1.0000000   25.0000000 1
793    0.1252766    1.0000000   25.0000000 1
794    0.1304785    1.0000000   25.0000000 1
795    0.1388837    1.0000000   25.0000000 1
796    0.1379228    1.0000000   25.0000000 1
797    0.1415845    1.0000000   25.0000000 1
798    0.1461280    1.0000000   25.0000000 1
799    0.1397043    1.0000000   25.0000000 1
800    0.1413068    1.0000000   25.0000000 1
801    0.1253064    1.0000000   25.0000000 1
802    0.1169090    1.0000000   25.0000000 1
803    0.1192757    1.0000000   25.0000000 1
804    0.1178931    1.0000000   25.0000000 1
805    0.1254797    1.0000000   25.0000000 1
806    0.1379965    1.0000000   25.0000000 1
807    0.1335794    1.0000000   25.0000000 1
808    0.1565082    1.0000000   25.0000000 1
809    0.1408941    1.0000000   25.0000000 1
810    0.1427655    1.0000000   25.0000000 1
811    0.1314648    1.0000000   25.0000000 1
812    0.1338561    1.0000000   25.0000000 1
813    0.1485980    1.0000000   25.0000000 1
814    0.1455316    1.0000000   25.0000000 1
815    0.1515513    1.0000000   25.0000000 1
816    0.1195863    1.0000000   25.0000000 1
817    0.1394282    1.0000000   25.0000000 1
818    0.1341365    1.0000000   25.0000000 1
819    0.1390871    1.0000000   25.0000000 1
820    0.1444988    1.0000000   25.0000000 1
821    0.1279568    1.0000000   25.0000000 1
822    0.1409134    1.0000000   25.0000000 1
823    0.1183083    1.0000000   25.0000000 1
824    0.1370596    1.0000000   25.0000000 1
825    0.1394205    1.0000000   25.0000000 1
826    0.1479633    1.0000000   25.0000000 1
827    0.1374473    1.0000000   25.0000000 1
828    0.1364440    1.0000000   25.0000000 1
829    0.1239003    1.0000000   25.0000000 1
830    0.1418356    1.0000000   25.0000000 1
831    0.1325351    1.0000000   25.0000000 1
832    0.1378428    1.0000000   25.0000000 1
833    0.1410360    1.0000000   25.0000000 1
834    0.1227541    1.0000000   25.0000000 1
835    0.1191729    1.0000000   25.0000000 1
836    0.1255837    1.0000000   25.0000000 1
837    0.1412605    1.0000000   25.0000000 1
838    0.1333961    1.0000000   25.0000000 1
839    0.1204584    1.0000000   25.0000000 1
840    0.1356715    1.0000000   25.0000000 1
841    0.1392122    1.0000000   25.0000000 1
842    0.1303540    1.0000000   25.0000000 1
843    0.1270128    1.0000000   25.0000000 1
844    0.1337515    1.0000000   25.0000000 1
845    0.1328748    1.0000000   25.0000000 1
846    0.1427035    1.0000000   25.0000000 1
847    0.1443292    1.0000000   25.0000000 1
848    0.1315610    1.0000000   25.0000000 1
849    0.1173732    1.0000000   25.0000000 1
850    0.1314298    1.0000000   25.0000000 1
851    0.1234281    1.0000000   25.0000000 1
852    0.1432737    1.0000000   25.0000000 1
853    0.1228701    1.0000000   25.0000000 1
854    0.1249921    1.0000000   25.0000000 1
855    0.1327178    1.0000000   25.0000000 1
856    0.1367525    1.0000000   25.0000000 1
857    0.1146424    1.0000000   25.0000000 1
858    0.1450835    1.0000000   25.0000000 1
859    0.1405889    1.0000000   25.0000000 1
860    0.1394902    1.0000000   25.0000000 1
861    0.1493358    1.0000000   25.0000000 1
862    0.1300509    1.0000000   25.0000000 1
863    0.1336713    1.0000000   25.0000000 1
864    0.1367508    1.0000000   25.0000000 1
865    0.1471594    1.0000000   25.0000000 1
866    0.1313606    1.0000000   25.0000000 1
867    0.1262603    1.0000000   25.0000000 1
868    0.1286803    1.0000000   25.0000000 1
869    0.1342155    1.0000000   25.0000000 1
870    0.1327883    1.0000000   25.0000000 1
871    0.1331198    1.0000000   25.0000000 1
872    0.1301434    1.0000000   25.0000000 1
873    0.1277403    1.0000000   25.0000000 1
874    0.1321310    1.0000000   25.0000000 1
875    0.1390470    1.0000000   25.0000000 1
876    0.1245648    1.0000000   25.0000000 1
877    0.1318069    1.0000000   25.0000000 1
878    0.1273746    1.0000000   25.0000000 1
879    0.1477108    1.0000000   25.0000000 1
880    0.1412827    1.0000000   25.0000000 1
881    0.1277737    1.0000000   25.0000000 1
882    0.1506406    1.0000000   25.0000000 1
883    0.1369505    1.0000000   25.0000000 1
884    0.1358153    1.0000000   25.0000000 1
885    0.1242667    1.0000000   25.0000000 1
886    0.1249313    1.0000000   25.0000000 1
887    0.1416884    1.0000000   25.0000000 1
888    0.1275251    1.0000000   25.0000000 1
889    0.1264409    1.0000000   25.0000000 1
890    0.1505915    1.0000000   25.0000000 1
891    0.1346359    1.0000000   25.0000000 1
892    0.1265430    1.0000000   25.0000000 1
893    0.1312291    1.0000000   25.0000000 1
894    0.1346571    1.0000000   25.0000000 1
895    0.1471352    1.0000000   25.0000000 1
896    0.1321805    1.0000000   25.0000000 1
897    0.1318593    1.0000000   25.0000000 1
898    0.1353002    1.0000000   25.0000000 1
899    0.1558183    1.0000000   25.0000000 1
900    0.1255910    1.0000000   25.0000000 1
901    0.1200350    1.0000000   25.0000000 1
902    0.1402413    1.0000000   25.0000000 1
903    0.1426335    1.0000000   25.0000000 1
904    0.1163538    1.0000000   25.0000000 1
905    0.1285381    1.0000000   25.0000000 1
906    0.1546924    1.0000000   25.0000000 1
907    0.1322959    1.0000000   25.0000000 1
908    0.1439872    1.0000000   25.0000000 1
909    0.1407275    1.0000000   25.0000000 1
910    0.1394157    1.0000000   25.0000000 1
911    0.1440881    1.0000000   25.0000000 1
912    0.1504588    1.0000000   25.0000000 1
913    0.1511743    1.0000000   25.0000000 1
914    0.1392388    1.0000000   25.0000000 1
915    0.1195929    1.0000000   25.0000000 1
916    0.1259870    1.0000000   25.0000000 1
917    0.1472279    1.0000000   25.0000000 1
918    0.1386875    1.0000000   25.0000000 1
919    0.1481372    1.0000000   25.0000000 1
920    0.1633677    1.0000000   25.0000000 1
921    0.1526182    1.0000000   25.0000000 1
922    0.1136142    1.0000000   25.0000000 1
923    0.1470445    1.0000000   25.0000000 1
924    0.1257678    1.0000000   25.0000000 1
925    0.1251839    1.0000000   25.0000000 1
926    0.1322605    1.0000000   25.0000000 1
927    0.1332730    1.0000000   25.0000000 1
928    0.1272403    1.0000000   25.0000000 1
929    0.1340904    1.0000000   25.0000000 1
930    0.1324119    1.0000000   25.0000000 1
931    0.1275799    1.0000000   25.0000000 1
932    0.1104080    1.0000000   25.0000000 1
933    0.1213217    1.0000000   25.0000000 1
934    0.1378083    1.0000000   25.0000000 1
935    0.1342534    1.0000000   25.0000000 1
936    0.1322124    1.0000000   25.0000000 1
937    0.1355445    1.0000000   25.0000000 1
938    0.1312846    1.0000000   25.0000000 1
939    0.1409873    1.0000000   25.0000000 1
940    0.1330599    1.0000000   25.0000000 1
941    0.1343353    1.0000000   25.0000000 1
942    0.1353615    1.0000000   25.0000000 1
943    0.1525201    1.0000000   25.0000000 1
944    0.1247972    1.0000000   25.0000000 1
945    0.1474333    1.0000000   25.0000000 1
946    0.1297026    1.0000000   25.0000000 1
947    0.1304005    1.0000000   25.0000000 1
948    0.1300116    1.0000000   25.0000000 1
949    0.1372961    1.0000000   25.0000000 1
950    0.1227850    1.0000000   25.0000000 1
951    0.1497241    1.0000000   25.0000000 1
952    0.1307607    1.0000000   25.0000000 1
953    0.1293692    1.0000000   25.0000000 1
954    0.1395590    1.0000000   25.0000000 1
955    0.1423108    1.0000000   25.0000000 1
956    0.1131974    1.0000000   25.0000000 1
957    0.1362343    1.0000000   25.0000000 1
958    0.1337993    1.0000000   25.0000000 1
959    0.1308717    1.0000000   25.0000000 1
960    0.1459259    1.0000000   25.0000000 1
961    0.1311892    1.0000000   25.0000000 1
962    0.1207919    1.0000000   25.0000000 1
963    0.1285292    1.0000000   25.0000000 1
964    0.1525822    1.0000000   25.0000000 1
965    0.1334736    1.0000000   25.0000000 1
966    0.1343605    1.0000000   25.0000000 1
967    0.1367034    1.0000000   25.0000000 1
968    0.1285841    1.0000000   25.0000000 1
969    0.1459517    1.0000000   25.0000000 1
970    0.1404762    1.0000000   25.0000000 1
971    0.1282865    1.0000000   25.0000000 1
972    0.1306546    1.0000000   25.0000000 1
973    0.1304334    1.0000000   25.0000000 1
974    0.1312386    1.0000000   25.0000000 1
975    0.1413674    1.0000000   25.0000000 1
976    0.1332514    1.0000000   25.0000000 1
977    0.1251193    1.0000000   25.0000000 1
978    0.1140358    1.0000000   25.0000000 1
979    0.1428375    1.0000000   25.0000000 1
980    0.1543533    1.0000000   25.0000000 1
981    0.1360622    1.0000000   25.0000000 1
982    0.1449000    1.0000000   25.0000000 1
983    0.1420180    1.0000000   25.0000000 1
984    0.1459595    1.0000000   25.0000000 1
985    0.1255216    1.0000000   25.0000000 1
986    0.1393746    1.0000000   25.0000000 1
987    0.1361832    1.0000000   25.0000000 1
988    0.1324664    1.0000000   25.0000000 1
989    0.1456597    1.0000000   25.0000000 1
990    0.1466939    1.0000000   25.0000000 1
991    0.1302531    1.0000000   25.0000000 1
992    0.1281704    1.0000000   25.0000000 1
993    0.1286937    1.0000000   25.0000000 1
994    0.1423877    1.0000000   25.0000000 1
995    0.1435490    1.0000000   25.0000000 1
996    0.1358331    1.0000000   25.0000000 1
997    0.1346824    1.0000000   25.0000000 1
998    0.1440263    1.0000000   25.0000000 1
999    0.1251613    1.0000000   25.0000000 1
1000    0.1235153    1.0000000   25.0000000 1
