$DATA1 SOURCE='HSPICE' VERSION='Q-2020.03-SP2-2 linux64' PARAM_COUNT=1
$OPTION MEASFORM=1
$index=1 is a nominal sample in Monte Carlo.
.TITLE '.title bl and blb voltage variation'
index v_final read_0_success temper alter#
1  6.587030e-02    1.0000000   25.0000000 1
2  6.548112e-02    1.0000000   25.0000000 1
3  7.052245e-02    1.0000000   25.0000000 1
4  6.234074e-02    1.0000000   25.0000000 1
5  6.614736e-02    1.0000000   25.0000000 1
6  7.454344e-02    1.0000000   25.0000000 1
7  6.329849e-02    1.0000000   25.0000000 1
8  6.158957e-02    1.0000000   25.0000000 1
9  6.460410e-02    1.0000000   25.0000000 1
10  6.223911e-02    1.0000000   25.0000000 1
11  6.661371e-02    1.0000000   25.0000000 1
12  6.232492e-02    1.0000000   25.0000000 1
13  6.764561e-02    1.0000000   25.0000000 1
14  6.620109e-02    1.0000000   25.0000000 1
15  6.792958e-02    1.0000000   25.0000000 1
16  6.884329e-02    1.0000000   25.0000000 1
17  6.281272e-02    1.0000000   25.0000000 1
18  7.471642e-02    1.0000000   25.0000000 1
19  6.263069e-02    1.0000000   25.0000000 1
20  7.294261e-02    1.0000000   25.0000000 1
21  6.574853e-02    1.0000000   25.0000000 1
22  6.188645e-02    1.0000000   25.0000000 1
23  6.339853e-02    1.0000000   25.0000000 1
24  6.330784e-02    1.0000000   25.0000000 1
25  6.579316e-02    1.0000000   25.0000000 1
26  6.177113e-02    1.0000000   25.0000000 1
27  6.173048e-02    1.0000000   25.0000000 1
28  6.740027e-02    1.0000000   25.0000000 1
29  6.108534e-02    1.0000000   25.0000000 1
30  6.662334e-02    1.0000000   25.0000000 1
31  6.625668e-02    1.0000000   25.0000000 1
32  6.290513e-02    1.0000000   25.0000000 1
33  6.686028e-02    1.0000000   25.0000000 1
34  6.197208e-02    1.0000000   25.0000000 1
35  5.885081e-02    1.0000000   25.0000000 1
36  6.900071e-02    1.0000000   25.0000000 1
37  7.372591e-02    1.0000000   25.0000000 1
38  6.273090e-02    1.0000000   25.0000000 1
39  6.603813e-02    1.0000000   25.0000000 1
40  7.195862e-02    1.0000000   25.0000000 1
41  6.426196e-02    1.0000000   25.0000000 1
42  6.075819e-02    1.0000000   25.0000000 1
43  6.313815e-02    1.0000000   25.0000000 1
44  6.070186e-02    1.0000000   25.0000000 1
45  6.413966e-02    1.0000000   25.0000000 1
46  6.287154e-02    1.0000000   25.0000000 1
47  6.472691e-02    1.0000000   25.0000000 1
48  6.212443e-02    1.0000000   25.0000000 1
49  5.890979e-02    1.0000000   25.0000000 1
50  5.782084e-02    1.0000000   25.0000000 1
51  7.406065e-02    1.0000000   25.0000000 1
52  7.351991e-02    1.0000000   25.0000000 1
53  6.637133e-02    1.0000000   25.0000000 1
54  6.192144e-02    1.0000000   25.0000000 1
55  6.403398e-02    1.0000000   25.0000000 1
56  6.675735e-02    1.0000000   25.0000000 1
57  6.455031e-02    1.0000000   25.0000000 1
58  6.083933e-02    1.0000000   25.0000000 1
59  6.204431e-02    1.0000000   25.0000000 1
60  6.312353e-02    1.0000000   25.0000000 1
61  6.616949e-02    1.0000000   25.0000000 1
62  6.631916e-02    1.0000000   25.0000000 1
63  6.513993e-02    1.0000000   25.0000000 1
64  7.483570e-02    1.0000000   25.0000000 1
65  6.074485e-02    1.0000000   25.0000000 1
66  6.117738e-02    1.0000000   25.0000000 1
67  6.339189e-02    1.0000000   25.0000000 1
68  6.229284e-02    1.0000000   25.0000000 1
69  6.457410e-02    1.0000000   25.0000000 1
70  6.564031e-02    1.0000000   25.0000000 1
71  6.566089e-02    1.0000000   25.0000000 1
72  6.259395e-02    1.0000000   25.0000000 1
73  6.139296e-02    1.0000000   25.0000000 1
74  6.821344e-02    1.0000000   25.0000000 1
75  6.186545e-02    1.0000000   25.0000000 1
76  6.798727e-02    1.0000000   25.0000000 1
77  6.649487e-02    1.0000000   25.0000000 1
78  6.396596e-02    1.0000000   25.0000000 1
79  5.981734e-02    1.0000000   25.0000000 1
80  5.989270e-02    1.0000000   25.0000000 1
81  7.737711e-02    1.0000000   25.0000000 1
82  6.214054e-02    1.0000000   25.0000000 1
83  6.543653e-02    1.0000000   25.0000000 1
84  7.305701e-02    1.0000000   25.0000000 1
85  6.139111e-02    1.0000000   25.0000000 1
86  6.344871e-02    1.0000000   25.0000000 1
87  7.243041e-02    1.0000000   25.0000000 1
88  6.271106e-02    1.0000000   25.0000000 1
89  6.521659e-02    1.0000000   25.0000000 1
90  6.650407e-02    1.0000000   25.0000000 1
91  6.316515e-02    1.0000000   25.0000000 1
92  6.212768e-02    1.0000000   25.0000000 1
93  7.295149e-02    1.0000000   25.0000000 1
94  6.397796e-02    1.0000000   25.0000000 1
95  6.250447e-02    1.0000000   25.0000000 1
96  6.483319e-02    1.0000000   25.0000000 1
97  6.276848e-02    1.0000000   25.0000000 1
98  7.415376e-02    1.0000000   25.0000000 1
99  6.780895e-02    1.0000000   25.0000000 1
100  6.240956e-02    1.0000000   25.0000000 1
101  6.442091e-02    1.0000000   25.0000000 1
102  6.755363e-02    1.0000000   25.0000000 1
103  6.382992e-02    1.0000000   25.0000000 1
104  6.302627e-02    1.0000000   25.0000000 1
105  6.094141e-02    1.0000000   25.0000000 1
106  7.477283e-02    1.0000000   25.0000000 1
107  7.189919e-02    1.0000000   25.0000000 1
108  6.226252e-02    1.0000000   25.0000000 1
109  6.596372e-02    1.0000000   25.0000000 1
110  6.502593e-02    1.0000000   25.0000000 1
111  6.377800e-02    1.0000000   25.0000000 1
112  6.243760e-02    1.0000000   25.0000000 1
113  6.585616e-02    1.0000000   25.0000000 1
114  6.724774e-02    1.0000000   25.0000000 1
115  6.264326e-02    1.0000000   25.0000000 1
116  6.369629e-02    1.0000000   25.0000000 1
117  7.364348e-02    1.0000000   25.0000000 1
118  6.277649e-02    1.0000000   25.0000000 1
119  6.263958e-02    1.0000000   25.0000000 1
120  6.221878e-02    1.0000000   25.0000000 1
121  6.290694e-02    1.0000000   25.0000000 1
122  6.183457e-02    1.0000000   25.0000000 1
123  6.281168e-02    1.0000000   25.0000000 1
124  7.488852e-02    1.0000000   25.0000000 1
125  6.318981e-02    1.0000000   25.0000000 1
126  6.317776e-02    1.0000000   25.0000000 1
127  6.212687e-02    1.0000000   25.0000000 1
128  6.231254e-02    1.0000000   25.0000000 1
129  6.648980e-02    1.0000000   25.0000000 1
130  6.308195e-02    1.0000000   25.0000000 1
131  6.576932e-02    1.0000000   25.0000000 1
132  7.276702e-02    1.0000000   25.0000000 1
133  6.374029e-02    1.0000000   25.0000000 1
134  6.493099e-02    1.0000000   25.0000000 1
135  6.286279e-02    1.0000000   25.0000000 1
136  6.242632e-02    1.0000000   25.0000000 1
137  6.398844e-02    1.0000000   25.0000000 1
138  6.209911e-02    1.0000000   25.0000000 1
139  6.299968e-02    1.0000000   25.0000000 1
140  6.360602e-02    1.0000000   25.0000000 1
141  6.250688e-02    1.0000000   25.0000000 1
142  6.229343e-02    1.0000000   25.0000000 1
143  6.385905e-02    1.0000000   25.0000000 1
144  6.714165e-02    1.0000000   25.0000000 1
145  6.152479e-02    1.0000000   25.0000000 1
146  6.654881e-02    1.0000000   25.0000000 1
147  6.528189e-02    1.0000000   25.0000000 1
148  6.542192e-02    1.0000000   25.0000000 1
149  6.335987e-02    1.0000000   25.0000000 1
150  6.284038e-02    1.0000000   25.0000000 1
151  6.160880e-02    1.0000000   25.0000000 1
152  6.356885e-02    1.0000000   25.0000000 1
153  6.130541e-02    1.0000000   25.0000000 1
154  6.314061e-02    1.0000000   25.0000000 1
155  6.319414e-02    1.0000000   25.0000000 1
156  6.500885e-02    1.0000000   25.0000000 1
157  6.378224e-02    1.0000000   25.0000000 1
158  6.174352e-02    1.0000000   25.0000000 1
159  6.271214e-02    1.0000000   25.0000000 1
160  7.104401e-02    1.0000000   25.0000000 1
161  7.479370e-02    1.0000000   25.0000000 1
162  7.493700e-02    1.0000000   25.0000000 1
163  6.307649e-02    1.0000000   25.0000000 1
164  7.411120e-02    1.0000000   25.0000000 1
165  6.481513e-02    1.0000000   25.0000000 1
166  6.166754e-02    1.0000000   25.0000000 1
167  6.504235e-02    1.0000000   25.0000000 1
168  6.363546e-02    1.0000000   25.0000000 1
169  6.254111e-02    1.0000000   25.0000000 1
170  6.331370e-02    1.0000000   25.0000000 1
171  6.250546e-02    1.0000000   25.0000000 1
172  6.180534e-02    1.0000000   25.0000000 1
173  6.260942e-02    1.0000000   25.0000000 1
174  6.224274e-02    1.0000000   25.0000000 1
175  6.302346e-02    1.0000000   25.0000000 1
176  6.388390e-02    1.0000000   25.0000000 1
177  7.698949e-02    1.0000000   25.0000000 1
178  6.276849e-02    1.0000000   25.0000000 1
179  6.665548e-02    1.0000000   25.0000000 1
180  6.291102e-02    1.0000000   25.0000000 1
181  6.608594e-02    1.0000000   25.0000000 1
182  7.478936e-02    1.0000000   25.0000000 1
183  6.474045e-02    1.0000000   25.0000000 1
184  6.405960e-02    1.0000000   25.0000000 1
185  6.843323e-02    1.0000000   25.0000000 1
186  7.490356e-02    1.0000000   25.0000000 1
187  6.880414e-02    1.0000000   25.0000000 1
188  6.498166e-02    1.0000000   25.0000000 1
189  6.628513e-02    1.0000000   25.0000000 1
190  6.293582e-02    1.0000000   25.0000000 1
191  6.274434e-02    1.0000000   25.0000000 1
192  6.360635e-02    1.0000000   25.0000000 1
193  6.081661e-02    1.0000000   25.0000000 1
194  6.570003e-02    1.0000000   25.0000000 1
195  6.280768e-02    1.0000000   25.0000000 1
196  6.240722e-02    1.0000000   25.0000000 1
197  6.225690e-02    1.0000000   25.0000000 1
198  6.503203e-02    1.0000000   25.0000000 1
199  7.531797e-02    1.0000000   25.0000000 1
200  6.200629e-02    1.0000000   25.0000000 1
201  6.594920e-02    1.0000000   25.0000000 1
202  6.460411e-02    1.0000000   25.0000000 1
203  6.327396e-02    1.0000000   25.0000000 1
204  6.276241e-02    1.0000000   25.0000000 1
205  6.612445e-02    1.0000000   25.0000000 1
206  6.369708e-02    1.0000000   25.0000000 1
207  6.257632e-02    1.0000000   25.0000000 1
208  6.165058e-02    1.0000000   25.0000000 1
209  6.178156e-02    1.0000000   25.0000000 1
210  6.365621e-02    1.0000000   25.0000000 1
211  6.269049e-02    1.0000000   25.0000000 1
212  6.230784e-02    1.0000000   25.0000000 1
213  6.290784e-02    1.0000000   25.0000000 1
214  6.242485e-02    1.0000000   25.0000000 1
215  7.579029e-02    1.0000000   25.0000000 1
216  6.710122e-02    1.0000000   25.0000000 1
217  6.303867e-02    1.0000000   25.0000000 1
218  6.813344e-02    1.0000000   25.0000000 1
219  6.137238e-02    1.0000000   25.0000000 1
220  6.173695e-02    1.0000000   25.0000000 1
221  6.259128e-02    1.0000000   25.0000000 1
222  6.519458e-02    1.0000000   25.0000000 1
223  6.717359e-02    1.0000000   25.0000000 1
224  6.122734e-02    1.0000000   25.0000000 1
225  6.301916e-02    1.0000000   25.0000000 1
226  6.243543e-02    1.0000000   25.0000000 1
227  6.206829e-02    1.0000000   25.0000000 1
228  6.581086e-02    1.0000000   25.0000000 1
229  6.438261e-02    1.0000000   25.0000000 1
230  6.233303e-02    1.0000000   25.0000000 1
231  7.291442e-02    1.0000000   25.0000000 1
232  6.380446e-02    1.0000000   25.0000000 1
233  6.157412e-02    1.0000000   25.0000000 1
234  6.329603e-02    1.0000000   25.0000000 1
235  6.684343e-02    1.0000000   25.0000000 1
236  7.050596e-02    1.0000000   25.0000000 1
237  6.212148e-02    1.0000000   25.0000000 1
238  6.235761e-02    1.0000000   25.0000000 1
239  6.900904e-02    1.0000000   25.0000000 1
240  6.401362e-02    1.0000000   25.0000000 1
241  6.375114e-02    1.0000000   25.0000000 1
242  6.248294e-02    1.0000000   25.0000000 1
243  6.648450e-02    1.0000000   25.0000000 1
244  7.500116e-02    1.0000000   25.0000000 1
245  6.620445e-02    1.0000000   25.0000000 1
246  6.148278e-02    1.0000000   25.0000000 1
247  6.278939e-02    1.0000000   25.0000000 1
248  6.174559e-02    1.0000000   25.0000000 1
249  7.182956e-02    1.0000000   25.0000000 1
250  6.182297e-02    1.0000000   25.0000000 1
251  6.535144e-02    1.0000000   25.0000000 1
252  6.951912e-02    1.0000000   25.0000000 1
253  6.275600e-02    1.0000000   25.0000000 1
254  7.373359e-02    1.0000000   25.0000000 1
255  6.256147e-02    1.0000000   25.0000000 1
256  6.201430e-02    1.0000000   25.0000000 1
257  6.171092e-02    1.0000000   25.0000000 1
258  7.182639e-02    1.0000000   25.0000000 1
259  6.551647e-02    1.0000000   25.0000000 1
260  6.149817e-02    1.0000000   25.0000000 1
261  6.310917e-02    1.0000000   25.0000000 1
262  6.515477e-02    1.0000000   25.0000000 1
263  6.484610e-02    1.0000000   25.0000000 1
264  6.364721e-02    1.0000000   25.0000000 1
265  6.359282e-02    1.0000000   25.0000000 1
266  6.260687e-02    1.0000000   25.0000000 1
267  6.298155e-02    1.0000000   25.0000000 1
268  6.389642e-02    1.0000000   25.0000000 1
269  6.587026e-02    1.0000000   25.0000000 1
270  6.481695e-02    1.0000000   25.0000000 1
271  6.217281e-02    1.0000000   25.0000000 1
272  6.175180e-02    1.0000000   25.0000000 1
273  6.406195e-02    1.0000000   25.0000000 1
274  6.822118e-02    1.0000000   25.0000000 1
275  6.225128e-02    1.0000000   25.0000000 1
276  6.279144e-02    1.0000000   25.0000000 1
277  6.353154e-02    1.0000000   25.0000000 1
278  6.678709e-02    1.0000000   25.0000000 1
279  6.806592e-02    1.0000000   25.0000000 1
280  7.372083e-02    1.0000000   25.0000000 1
281  6.090283e-02    1.0000000   25.0000000 1
282  6.676800e-02    1.0000000   25.0000000 1
283  7.253947e-02    1.0000000   25.0000000 1
284  6.626577e-02    1.0000000   25.0000000 1
285  6.371287e-02    1.0000000   25.0000000 1
286  6.630972e-02    1.0000000   25.0000000 1
287  6.215025e-02    1.0000000   25.0000000 1
288  6.774344e-02    1.0000000   25.0000000 1
289  6.354760e-02    1.0000000   25.0000000 1
290  6.260280e-02    1.0000000   25.0000000 1
291  6.495237e-02    1.0000000   25.0000000 1
292  6.121043e-02    1.0000000   25.0000000 1
293  7.320240e-02    1.0000000   25.0000000 1
294  6.255345e-02    1.0000000   25.0000000 1
295  6.705417e-02    1.0000000   25.0000000 1
296  6.506717e-02    1.0000000   25.0000000 1
297  6.301869e-02    1.0000000   25.0000000 1
298  7.237243e-02    1.0000000   25.0000000 1
299  7.223809e-02    1.0000000   25.0000000 1
300  6.280910e-02    1.0000000   25.0000000 1
301  6.371772e-02    1.0000000   25.0000000 1
302  6.556780e-02    1.0000000   25.0000000 1
303  6.415126e-02    1.0000000   25.0000000 1
304  6.626501e-02    1.0000000   25.0000000 1
305  6.292696e-02    1.0000000   25.0000000 1
306  6.273421e-02    1.0000000   25.0000000 1
307  6.495981e-02    1.0000000   25.0000000 1
308  6.212009e-02    1.0000000   25.0000000 1
309  6.381255e-02    1.0000000   25.0000000 1
310  6.375895e-02    1.0000000   25.0000000 1
311  6.602182e-02    1.0000000   25.0000000 1
312  6.344618e-02    1.0000000   25.0000000 1
313  6.588067e-02    1.0000000   25.0000000 1
314  6.428986e-02    1.0000000   25.0000000 1
315  6.914800e-02    1.0000000   25.0000000 1
316  6.498456e-02    1.0000000   25.0000000 1
317  6.539988e-02    1.0000000   25.0000000 1
318  6.379270e-02    1.0000000   25.0000000 1
319  6.202349e-02    1.0000000   25.0000000 1
320  6.354954e-02    1.0000000   25.0000000 1
321  6.390610e-02    1.0000000   25.0000000 1
322  6.601364e-02    1.0000000   25.0000000 1
323  6.656936e-02    1.0000000   25.0000000 1
324  7.328408e-02    1.0000000   25.0000000 1
325  6.826369e-02    1.0000000   25.0000000 1
326  7.263863e-02    1.0000000   25.0000000 1
327  6.256969e-02    1.0000000   25.0000000 1
328  6.249332e-02    1.0000000   25.0000000 1
329  6.564808e-02    1.0000000   25.0000000 1
330  7.463543e-02    1.0000000   25.0000000 1
331  6.789410e-02    1.0000000   25.0000000 1
332  6.124248e-02    1.0000000   25.0000000 1
333  6.221116e-02    1.0000000   25.0000000 1
334  7.282616e-02    1.0000000   25.0000000 1
335  5.730942e-02    1.0000000   25.0000000 1
336  6.135995e-02    1.0000000   25.0000000 1
337  6.283752e-02    1.0000000   25.0000000 1
338  6.075808e-02    1.0000000   25.0000000 1
339  6.276316e-02    1.0000000   25.0000000 1
340  6.284453e-02    1.0000000   25.0000000 1
341  7.354816e-02    1.0000000   25.0000000 1
342  6.273144e-02    1.0000000   25.0000000 1
343  6.712978e-02    1.0000000   25.0000000 1
344  6.366893e-02    1.0000000   25.0000000 1
345  6.444843e-02    1.0000000   25.0000000 1
346  6.533822e-02    1.0000000   25.0000000 1
347  5.642546e-02    1.0000000   25.0000000 1
348  7.466222e-02    1.0000000   25.0000000 1
349  6.327745e-02    1.0000000   25.0000000 1
350  6.274526e-02    1.0000000   25.0000000 1
351  6.895063e-02    1.0000000   25.0000000 1
352  5.990976e-02    1.0000000   25.0000000 1
353  6.659082e-02    1.0000000   25.0000000 1
354  6.557816e-02    1.0000000   25.0000000 1
355  6.398811e-02    1.0000000   25.0000000 1
356  6.296940e-02    1.0000000   25.0000000 1
357  6.250301e-02    1.0000000   25.0000000 1
358  6.561826e-02    1.0000000   25.0000000 1
359  6.315196e-02    1.0000000   25.0000000 1
360  6.306601e-02    1.0000000   25.0000000 1
361  6.238388e-02    1.0000000   25.0000000 1
362  7.225202e-02    1.0000000   25.0000000 1
363  6.297229e-02    1.0000000   25.0000000 1
364  7.791083e-02    1.0000000   25.0000000 1
365  6.047334e-02    1.0000000   25.0000000 1
366  6.283893e-02    1.0000000   25.0000000 1
367  6.243182e-02    1.0000000   25.0000000 1
368  6.054401e-02    1.0000000   25.0000000 1
369  6.794128e-02    1.0000000   25.0000000 1
370  6.187500e-02    1.0000000   25.0000000 1
371  7.515604e-02    1.0000000   25.0000000 1
372  6.633856e-02    1.0000000   25.0000000 1
373  6.172841e-02    1.0000000   25.0000000 1
374  6.671033e-02    1.0000000   25.0000000 1
375  6.079956e-02    1.0000000   25.0000000 1
376  6.168183e-02    1.0000000   25.0000000 1
377  7.233388e-02    1.0000000   25.0000000 1
378  6.307346e-02    1.0000000   25.0000000 1
379  6.665580e-02    1.0000000   25.0000000 1
380  6.312851e-02    1.0000000   25.0000000 1
381  6.488492e-02    1.0000000   25.0000000 1
382  6.463750e-02    1.0000000   25.0000000 1
383  6.240804e-02    1.0000000   25.0000000 1
384  6.689833e-02    1.0000000   25.0000000 1
385  6.089877e-02    1.0000000   25.0000000 1
386  6.236905e-02    1.0000000   25.0000000 1
387  6.184884e-02    1.0000000   25.0000000 1
388  6.714583e-02    1.0000000   25.0000000 1
389  6.374346e-02    1.0000000   25.0000000 1
390  6.192849e-02    1.0000000   25.0000000 1
391  6.725573e-02    1.0000000   25.0000000 1
392  6.176273e-02    1.0000000   25.0000000 1
393  6.113192e-02    1.0000000   25.0000000 1
394  6.515951e-02    1.0000000   25.0000000 1
395  6.575843e-02    1.0000000   25.0000000 1
396  6.905733e-02    1.0000000   25.0000000 1
397  7.329007e-02    1.0000000   25.0000000 1
398  6.264418e-02    1.0000000   25.0000000 1
399  6.609061e-02    1.0000000   25.0000000 1
400  6.744594e-02    1.0000000   25.0000000 1
401  6.308754e-02    1.0000000   25.0000000 1
402  6.443071e-02    1.0000000   25.0000000 1
403  6.188968e-02    1.0000000   25.0000000 1
404  6.647380e-02    1.0000000   25.0000000 1
405  6.308233e-02    1.0000000   25.0000000 1
406  6.439558e-02    1.0000000   25.0000000 1
407  6.291500e-02    1.0000000   25.0000000 1
408  6.368832e-02    1.0000000   25.0000000 1
409  7.311404e-02    1.0000000   25.0000000 1
410  6.190244e-02    1.0000000   25.0000000 1
411  6.162427e-02    1.0000000   25.0000000 1
412  6.257592e-02    1.0000000   25.0000000 1
413  6.637215e-02    1.0000000   25.0000000 1
414  6.513870e-02    1.0000000   25.0000000 1
415  6.531785e-02    1.0000000   25.0000000 1
416  6.286040e-02    1.0000000   25.0000000 1
417  6.127990e-02    1.0000000   25.0000000 1
418  6.232319e-02    1.0000000   25.0000000 1
419  6.198951e-02    1.0000000   25.0000000 1
420  6.889291e-02    1.0000000   25.0000000 1
421  6.267920e-02    1.0000000   25.0000000 1
422  6.244613e-02    1.0000000   25.0000000 1
423  6.581863e-02    1.0000000   25.0000000 1
424  6.443678e-02    1.0000000   25.0000000 1
425  6.631379e-02    1.0000000   25.0000000 1
426  6.833454e-02    1.0000000   25.0000000 1
427  6.506219e-02    1.0000000   25.0000000 1
428  6.505259e-02    1.0000000   25.0000000 1
429  6.104790e-02    1.0000000   25.0000000 1
430  8.003513e-02    1.0000000   25.0000000 1
431  6.247791e-02    1.0000000   25.0000000 1
432  6.284499e-02    1.0000000   25.0000000 1
433  6.509501e-02    1.0000000   25.0000000 1
434  6.335729e-02    1.0000000   25.0000000 1
435  6.169252e-02    1.0000000   25.0000000 1
436  6.189386e-02    1.0000000   25.0000000 1
437  6.643791e-02    1.0000000   25.0000000 1
438  6.227645e-02    1.0000000   25.0000000 1
439  6.623818e-02    1.0000000   25.0000000 1
440  6.478503e-02    1.0000000   25.0000000 1
441  6.115799e-02    1.0000000   25.0000000 1
442  6.234997e-02    1.0000000   25.0000000 1
443  6.239990e-02    1.0000000   25.0000000 1
444  6.504926e-02    1.0000000   25.0000000 1
445  6.234947e-02    1.0000000   25.0000000 1
446  6.490004e-02    1.0000000   25.0000000 1
447  6.289885e-02    1.0000000   25.0000000 1
448  6.281332e-02    1.0000000   25.0000000 1
449  6.609337e-02    1.0000000   25.0000000 1
450  7.377587e-02    1.0000000   25.0000000 1
451  6.376964e-02    1.0000000   25.0000000 1
452  6.603210e-02    1.0000000   25.0000000 1
453  5.904046e-02    1.0000000   25.0000000 1
454  6.517731e-02    1.0000000   25.0000000 1
455  7.452042e-02    1.0000000   25.0000000 1
456  6.141471e-02    1.0000000   25.0000000 1
457  6.516593e-02    1.0000000   25.0000000 1
458  6.436085e-02    1.0000000   25.0000000 1
459  6.667197e-02    1.0000000   25.0000000 1
460  6.438746e-02    1.0000000   25.0000000 1
461  7.539408e-02    1.0000000   25.0000000 1
462  6.302005e-02    1.0000000   25.0000000 1
463  6.541613e-02    1.0000000   25.0000000 1
464  6.476344e-02    1.0000000   25.0000000 1
465  6.130314e-02    1.0000000   25.0000000 1
466  6.299319e-02    1.0000000   25.0000000 1
467  6.243873e-02    1.0000000   25.0000000 1
468  6.551243e-02    1.0000000   25.0000000 1
469  6.189597e-02    1.0000000   25.0000000 1
470  7.466352e-02    1.0000000   25.0000000 1
471  6.539716e-02    1.0000000   25.0000000 1
472  6.177668e-02    1.0000000   25.0000000 1
473  5.765477e-02    1.0000000   25.0000000 1
474  7.210855e-02    1.0000000   25.0000000 1
475  6.306398e-02    1.0000000   25.0000000 1
476  6.232611e-02    1.0000000   25.0000000 1
477  7.842875e-02    1.0000000   25.0000000 1
478  6.114881e-02    1.0000000   25.0000000 1
479  6.083266e-02    1.0000000   25.0000000 1
480  6.455772e-02    1.0000000   25.0000000 1
481  6.474295e-02    1.0000000   25.0000000 1
482  6.482718e-02    1.0000000   25.0000000 1
483  6.760636e-02    1.0000000   25.0000000 1
484  6.762109e-02    1.0000000   25.0000000 1
485  7.262147e-02    1.0000000   25.0000000 1
486  6.203957e-02    1.0000000   25.0000000 1
487  6.213276e-02    1.0000000   25.0000000 1
488  6.606596e-02    1.0000000   25.0000000 1
489  6.111313e-02    1.0000000   25.0000000 1
490  6.325670e-02    1.0000000   25.0000000 1
491  6.267032e-02    1.0000000   25.0000000 1
492  6.232616e-02    1.0000000   25.0000000 1
493  6.279782e-02    1.0000000   25.0000000 1
494  6.580605e-02    1.0000000   25.0000000 1
495  6.468648e-02    1.0000000   25.0000000 1
496  6.455194e-02    1.0000000   25.0000000 1
497  5.817870e-02    1.0000000   25.0000000 1
498  6.615164e-02    1.0000000   25.0000000 1
499  6.821816e-02    1.0000000   25.0000000 1
500  6.170105e-02    1.0000000   25.0000000 1
501  6.552972e-02    1.0000000   25.0000000 1
502  6.684138e-02    1.0000000   25.0000000 1
503  6.265701e-02    1.0000000   25.0000000 1
504  6.061146e-02    1.0000000   25.0000000 1
505  6.354613e-02    1.0000000   25.0000000 1
506  6.370344e-02    1.0000000   25.0000000 1
507  6.681058e-02    1.0000000   25.0000000 1
508  6.420162e-02    1.0000000   25.0000000 1
509  6.285920e-02    1.0000000   25.0000000 1
510  7.428956e-02    1.0000000   25.0000000 1
511  6.629737e-02    1.0000000   25.0000000 1
512  6.619420e-02    1.0000000   25.0000000 1
513  6.130369e-02    1.0000000   25.0000000 1
514  6.631494e-02    1.0000000   25.0000000 1
515  6.717462e-02    1.0000000   25.0000000 1
516  6.367124e-02    1.0000000   25.0000000 1
517  7.385682e-02    1.0000000   25.0000000 1
518  6.781586e-02    1.0000000   25.0000000 1
519  6.257613e-02    1.0000000   25.0000000 1
520  6.174549e-02    1.0000000   25.0000000 1
521  6.285041e-02    1.0000000   25.0000000 1
522  6.627252e-02    1.0000000   25.0000000 1
523  7.598934e-02    1.0000000   25.0000000 1
524  6.179802e-02    1.0000000   25.0000000 1
525  6.232706e-02    1.0000000   25.0000000 1
526  6.470721e-02    1.0000000   25.0000000 1
527  6.270427e-02    1.0000000   25.0000000 1
528  6.195746e-02    1.0000000   25.0000000 1
529  7.104708e-02    1.0000000   25.0000000 1
530  6.236656e-02    1.0000000   25.0000000 1
531  6.340166e-02    1.0000000   25.0000000 1
532  6.243685e-02    1.0000000   25.0000000 1
533  6.539267e-02    1.0000000   25.0000000 1
534  6.178184e-02    1.0000000   25.0000000 1
535  6.528309e-02    1.0000000   25.0000000 1
536  6.306441e-02    1.0000000   25.0000000 1
537  6.216443e-02    1.0000000   25.0000000 1
538  6.556305e-02    1.0000000   25.0000000 1
539  6.264571e-02    1.0000000   25.0000000 1
540  6.295787e-02    1.0000000   25.0000000 1
541  6.251749e-02    1.0000000   25.0000000 1
542  6.539686e-02    1.0000000   25.0000000 1
543  7.441677e-02    1.0000000   25.0000000 1
544  6.233868e-02    1.0000000   25.0000000 1
545  6.133345e-02    1.0000000   25.0000000 1
546  6.400665e-02    1.0000000   25.0000000 1
547  5.718277e-02    1.0000000   25.0000000 1
548  7.250872e-02    1.0000000   25.0000000 1
549  6.576714e-02    1.0000000   25.0000000 1
550  6.671122e-02    1.0000000   25.0000000 1
551  6.277585e-02    1.0000000   25.0000000 1
552  6.096549e-02    1.0000000   25.0000000 1
553  6.206294e-02    1.0000000   25.0000000 1
554  6.241063e-02    1.0000000   25.0000000 1
555  6.301601e-02    1.0000000   25.0000000 1
556  6.228932e-02    1.0000000   25.0000000 1
557  6.379225e-02    1.0000000   25.0000000 1
558  6.016022e-02    1.0000000   25.0000000 1
559  6.269776e-02    1.0000000   25.0000000 1
560  7.672586e-02    1.0000000   25.0000000 1
561  5.942100e-02    1.0000000   25.0000000 1
562  6.462582e-02    1.0000000   25.0000000 1
563  7.320552e-02    1.0000000   25.0000000 1
564  6.301536e-02    1.0000000   25.0000000 1
565  6.134840e-02    1.0000000   25.0000000 1
566  6.652608e-02    1.0000000   25.0000000 1
567  6.295463e-02    1.0000000   25.0000000 1
568  6.216241e-02    1.0000000   25.0000000 1
569  6.372709e-02    1.0000000   25.0000000 1
570  6.814114e-02    1.0000000   25.0000000 1
571  6.168934e-02    1.0000000   25.0000000 1
572  6.149744e-02    1.0000000   25.0000000 1
573  6.575347e-02    1.0000000   25.0000000 1
574  6.005614e-02    1.0000000   25.0000000 1
575  6.727735e-02    1.0000000   25.0000000 1
576  6.539768e-02    1.0000000   25.0000000 1
577  6.340301e-02    1.0000000   25.0000000 1
578  6.292652e-02    1.0000000   25.0000000 1
579  6.227004e-02    1.0000000   25.0000000 1
580  6.246497e-02    1.0000000   25.0000000 1
581  6.239114e-02    1.0000000   25.0000000 1
582  6.272096e-02    1.0000000   25.0000000 1
583  6.298357e-02    1.0000000   25.0000000 1
584  6.588622e-02    1.0000000   25.0000000 1
585  6.255999e-02    1.0000000   25.0000000 1
586  6.114871e-02    1.0000000   25.0000000 1
587  6.258101e-02    1.0000000   25.0000000 1
588  6.350312e-02    1.0000000   25.0000000 1
589  6.527316e-02    1.0000000   25.0000000 1
590  7.425707e-02    1.0000000   25.0000000 1
591  6.233827e-02    1.0000000   25.0000000 1
592  6.429211e-02    1.0000000   25.0000000 1
593  7.172428e-02    1.0000000   25.0000000 1
594  6.254329e-02    1.0000000   25.0000000 1
595  6.360211e-02    1.0000000   25.0000000 1
596  6.153498e-02    1.0000000   25.0000000 1
597  6.301666e-02    1.0000000   25.0000000 1
598  6.272951e-02    1.0000000   25.0000000 1
599  6.749966e-02    1.0000000   25.0000000 1
600  6.363451e-02    1.0000000   25.0000000 1
601  6.478306e-02    1.0000000   25.0000000 1
602  6.283718e-02    1.0000000   25.0000000 1
603  6.357670e-02    1.0000000   25.0000000 1
604  6.478804e-02    1.0000000   25.0000000 1
605  6.419821e-02    1.0000000   25.0000000 1
606  6.200842e-02    1.0000000   25.0000000 1
607  6.288439e-02    1.0000000   25.0000000 1
608  6.836053e-02    1.0000000   25.0000000 1
609  8.077862e-02    1.0000000   25.0000000 1
610  6.520909e-02    1.0000000   25.0000000 1
611  7.035696e-02    1.0000000   25.0000000 1
612  6.663199e-02    1.0000000   25.0000000 1
613  6.408992e-02    1.0000000   25.0000000 1
614  6.213403e-02    1.0000000   25.0000000 1
615  6.165688e-02    1.0000000   25.0000000 1
616  6.841127e-02    1.0000000   25.0000000 1
617  6.603501e-02    1.0000000   25.0000000 1
618  6.118217e-02    1.0000000   25.0000000 1
619  6.159452e-02    1.0000000   25.0000000 1
620  6.132668e-02    1.0000000   25.0000000 1
621  6.255231e-02    1.0000000   25.0000000 1
622  6.698970e-02    1.0000000   25.0000000 1
623  6.181919e-02    1.0000000   25.0000000 1
624  6.275848e-02    1.0000000   25.0000000 1
625  6.731999e-02    1.0000000   25.0000000 1
626  6.762279e-02    1.0000000   25.0000000 1
627  6.233567e-02    1.0000000   25.0000000 1
628  6.500133e-02    1.0000000   25.0000000 1
629  6.666788e-02    1.0000000   25.0000000 1
630  6.240055e-02    1.0000000   25.0000000 1
631  6.109024e-02    1.0000000   25.0000000 1
632  6.350346e-02    1.0000000   25.0000000 1
633  6.253863e-02    1.0000000   25.0000000 1
634  6.256969e-02    1.0000000   25.0000000 1
635  6.295619e-02    1.0000000   25.0000000 1
636  7.408601e-02    1.0000000   25.0000000 1
637  6.115859e-02    1.0000000   25.0000000 1
638  6.521558e-02    1.0000000   25.0000000 1
639  7.291121e-02    1.0000000   25.0000000 1
640  6.213525e-02    1.0000000   25.0000000 1
641  6.201252e-02    1.0000000   25.0000000 1
642  6.078470e-02    1.0000000   25.0000000 1
643  6.222770e-02    1.0000000   25.0000000 1
644  7.467098e-02    1.0000000   25.0000000 1
645  6.363860e-02    1.0000000   25.0000000 1
646  6.257313e-02    1.0000000   25.0000000 1
647  6.081974e-02    1.0000000   25.0000000 1
648  6.621427e-02    1.0000000   25.0000000 1
649  6.218306e-02    1.0000000   25.0000000 1
650  6.191243e-02    1.0000000   25.0000000 1
651  6.177088e-02    1.0000000   25.0000000 1
652  6.610819e-02    1.0000000   25.0000000 1
653  6.213290e-02    1.0000000   25.0000000 1
654  6.621958e-02    1.0000000   25.0000000 1
655  6.259492e-02    1.0000000   25.0000000 1
656  6.228719e-02    1.0000000   25.0000000 1
657  5.794403e-02    1.0000000   25.0000000 1
658  6.429580e-02    1.0000000   25.0000000 1
659  6.232331e-02    1.0000000   25.0000000 1
660  6.310411e-02    1.0000000   25.0000000 1
661  6.250060e-02    1.0000000   25.0000000 1
662  6.152014e-02    1.0000000   25.0000000 1
663  6.305669e-02    1.0000000   25.0000000 1
664  6.697498e-02    1.0000000   25.0000000 1
665  6.415090e-02    1.0000000   25.0000000 1
666  6.077245e-02    1.0000000   25.0000000 1
667  6.501557e-02    1.0000000   25.0000000 1
668  6.169372e-02    1.0000000   25.0000000 1
669  6.271986e-02    1.0000000   25.0000000 1
670  6.437614e-02    1.0000000   25.0000000 1
671  6.671901e-02    1.0000000   25.0000000 1
672  6.354883e-02    1.0000000   25.0000000 1
673  5.947589e-02    1.0000000   25.0000000 1
674  8.010646e-02    1.0000000   25.0000000 1
675  7.790811e-02    1.0000000   25.0000000 1
676  6.752138e-02    1.0000000   25.0000000 1
677  6.522727e-02    1.0000000   25.0000000 1
678  6.103851e-02    1.0000000   25.0000000 1
679  7.039760e-02    1.0000000   25.0000000 1
680  7.481361e-02    1.0000000   25.0000000 1
681  6.263357e-02    1.0000000   25.0000000 1
682  6.306149e-02    1.0000000   25.0000000 1
683  6.720557e-02    1.0000000   25.0000000 1
684  6.278414e-02    1.0000000   25.0000000 1
685  6.363892e-02    1.0000000   25.0000000 1
686  6.593451e-02    1.0000000   25.0000000 1
687  6.833881e-02    1.0000000   25.0000000 1
688  6.285305e-02    1.0000000   25.0000000 1
689  6.316936e-02    1.0000000   25.0000000 1
690  6.346403e-02    1.0000000   25.0000000 1
691  6.518075e-02    1.0000000   25.0000000 1
692  6.096480e-02    1.0000000   25.0000000 1
693  6.118469e-02    1.0000000   25.0000000 1
694  6.145745e-02    1.0000000   25.0000000 1
695  6.170587e-02    1.0000000   25.0000000 1
696  6.099433e-02    1.0000000   25.0000000 1
697  6.256282e-02    1.0000000   25.0000000 1
698  6.507758e-02    1.0000000   25.0000000 1
699  6.299717e-02    1.0000000   25.0000000 1
700  6.550375e-02    1.0000000   25.0000000 1
701  6.238115e-02    1.0000000   25.0000000 1
702  6.236616e-02    1.0000000   25.0000000 1
703  6.643382e-02    1.0000000   25.0000000 1
704  6.085902e-02    1.0000000   25.0000000 1
705  6.253042e-02    1.0000000   25.0000000 1
706  6.221087e-02    1.0000000   25.0000000 1
707  6.412204e-02    1.0000000   25.0000000 1
708  6.505542e-02    1.0000000   25.0000000 1
709  6.607180e-02    1.0000000   25.0000000 1
710  7.288569e-02    1.0000000   25.0000000 1
711  6.548709e-02    1.0000000   25.0000000 1
712  6.482745e-02    1.0000000   25.0000000 1
713  6.884961e-02    1.0000000   25.0000000 1
714  7.435809e-02    1.0000000   25.0000000 1
715  6.474782e-02    1.0000000   25.0000000 1
716  6.376691e-02    1.0000000   25.0000000 1
717  7.304649e-02    1.0000000   25.0000000 1
718  6.606239e-02    1.0000000   25.0000000 1
719  6.310924e-02    1.0000000   25.0000000 1
720  6.196387e-02    1.0000000   25.0000000 1
721  7.267168e-02    1.0000000   25.0000000 1
722  6.372718e-02    1.0000000   25.0000000 1
723  6.103916e-02    1.0000000   25.0000000 1
724  6.258262e-02    1.0000000   25.0000000 1
725  6.299405e-02    1.0000000   25.0000000 1
726  6.788732e-02    1.0000000   25.0000000 1
727  6.465736e-02    1.0000000   25.0000000 1
728  6.035206e-02    1.0000000   25.0000000 1
729  6.241619e-02    1.0000000   25.0000000 1
730  6.643429e-02    1.0000000   25.0000000 1
731  6.456123e-02    1.0000000   25.0000000 1
732  6.262274e-02    1.0000000   25.0000000 1
733  6.808975e-02    1.0000000   25.0000000 1
734  6.610497e-02    1.0000000   25.0000000 1
735  6.542893e-02    1.0000000   25.0000000 1
736  7.446215e-02    1.0000000   25.0000000 1
737  6.507081e-02    1.0000000   25.0000000 1
738  7.456502e-02    1.0000000   25.0000000 1
739  6.270598e-02    1.0000000   25.0000000 1
740  6.107509e-02    1.0000000   25.0000000 1
741  6.700281e-02    1.0000000   25.0000000 1
742  6.318850e-02    1.0000000   25.0000000 1
743  6.209507e-02    1.0000000   25.0000000 1
744  6.198115e-02    1.0000000   25.0000000 1
745  6.055387e-02    1.0000000   25.0000000 1
746  6.230109e-02    1.0000000   25.0000000 1
747  6.480144e-02    1.0000000   25.0000000 1
748  7.245942e-02    1.0000000   25.0000000 1
749  6.320467e-02    1.0000000   25.0000000 1
750  6.238087e-02    1.0000000   25.0000000 1
751  7.822403e-02    1.0000000   25.0000000 1
752  6.350113e-02    1.0000000   25.0000000 1
753  6.662174e-02    1.0000000   25.0000000 1
754  6.547371e-02    1.0000000   25.0000000 1
755  6.349415e-02    1.0000000   25.0000000 1
756  6.290029e-02    1.0000000   25.0000000 1
757  6.790366e-02    1.0000000   25.0000000 1
758  6.424512e-02    1.0000000   25.0000000 1
759  6.184782e-02    1.0000000   25.0000000 1
760  6.619526e-02    1.0000000   25.0000000 1
761  6.610674e-02    1.0000000   25.0000000 1
762  6.546710e-02    1.0000000   25.0000000 1
763  7.905636e-02    1.0000000   25.0000000 1
764  6.432625e-02    1.0000000   25.0000000 1
765  6.315649e-02    1.0000000   25.0000000 1
766  7.528921e-02    1.0000000   25.0000000 1
767  6.490082e-02    1.0000000   25.0000000 1
768  6.235837e-02    1.0000000   25.0000000 1
769  6.364782e-02    1.0000000   25.0000000 1
770  6.216999e-02    1.0000000   25.0000000 1
771  7.249811e-02    1.0000000   25.0000000 1
772  6.242001e-02    1.0000000   25.0000000 1
773  6.250385e-02    1.0000000   25.0000000 1
774  7.230944e-02    1.0000000   25.0000000 1
775  6.915862e-02    1.0000000   25.0000000 1
776  6.265748e-02    1.0000000   25.0000000 1
777  7.383158e-02    1.0000000   25.0000000 1
778  6.471915e-02    1.0000000   25.0000000 1
779  6.300897e-02    1.0000000   25.0000000 1
780  6.757794e-02    1.0000000   25.0000000 1
781  6.245238e-02    1.0000000   25.0000000 1
782  6.292680e-02    1.0000000   25.0000000 1
783  6.243922e-02    1.0000000   25.0000000 1
784  6.528684e-02    1.0000000   25.0000000 1
785  6.548713e-02    1.0000000   25.0000000 1
786  6.120865e-02    1.0000000   25.0000000 1
787  7.272287e-02    1.0000000   25.0000000 1
788  6.364571e-02    1.0000000   25.0000000 1
789  6.323550e-02    1.0000000   25.0000000 1
790  6.240731e-02    1.0000000   25.0000000 1
791  6.316184e-02    1.0000000   25.0000000 1
792  6.270929e-02    1.0000000   25.0000000 1
793  6.347892e-02    1.0000000   25.0000000 1
794  6.320866e-02    1.0000000   25.0000000 1
795  6.252047e-02    1.0000000   25.0000000 1
796  6.599672e-02    1.0000000   25.0000000 1
797  6.253682e-02    1.0000000   25.0000000 1
798  6.141581e-02    1.0000000   25.0000000 1
799  6.890951e-02    1.0000000   25.0000000 1
800  7.336243e-02    1.0000000   25.0000000 1
801  6.462492e-02    1.0000000   25.0000000 1
802  6.885778e-02    1.0000000   25.0000000 1
803  6.266246e-02    1.0000000   25.0000000 1
804  6.312337e-02    1.0000000   25.0000000 1
805  6.274728e-02    1.0000000   25.0000000 1
806  6.433236e-02    1.0000000   25.0000000 1
807  6.203233e-02    1.0000000   25.0000000 1
808  6.269634e-02    1.0000000   25.0000000 1
809  6.485627e-02    1.0000000   25.0000000 1
810  6.302645e-02    1.0000000   25.0000000 1
811  6.473174e-02    1.0000000   25.0000000 1
812  5.931465e-02    1.0000000   25.0000000 1
813  6.536698e-02    1.0000000   25.0000000 1
814  6.255765e-02    1.0000000   25.0000000 1
815  6.985086e-02    1.0000000   25.0000000 1
816  6.204214e-02    1.0000000   25.0000000 1
817  6.453809e-02    1.0000000   25.0000000 1
818  6.267951e-02    1.0000000   25.0000000 1
819  6.247615e-02    1.0000000   25.0000000 1
820  6.367798e-02    1.0000000   25.0000000 1
821  6.097024e-02    1.0000000   25.0000000 1
822  6.668076e-02    1.0000000   25.0000000 1
823  6.665343e-02    1.0000000   25.0000000 1
824  6.241667e-02    1.0000000   25.0000000 1
825  5.762557e-02    1.0000000   25.0000000 1
826  6.263869e-02    1.0000000   25.0000000 1
827  6.217926e-02    1.0000000   25.0000000 1
828  6.147145e-02    1.0000000   25.0000000 1
829  6.280159e-02    1.0000000   25.0000000 1
830  6.203477e-02    1.0000000   25.0000000 1
831  6.817377e-02    1.0000000   25.0000000 1
832  6.652458e-02    1.0000000   25.0000000 1
833  6.288672e-02    1.0000000   25.0000000 1
834  6.265860e-02    1.0000000   25.0000000 1
835  7.737374e-02    1.0000000   25.0000000 1
836  6.369374e-02    1.0000000   25.0000000 1
837  6.775234e-02    1.0000000   25.0000000 1
838  6.101397e-02    1.0000000   25.0000000 1
839  6.353584e-02    1.0000000   25.0000000 1
840  6.550859e-02    1.0000000   25.0000000 1
841  6.302751e-02    1.0000000   25.0000000 1
842  6.775363e-02    1.0000000   25.0000000 1
843  6.971941e-02    1.0000000   25.0000000 1
844  6.778485e-02    1.0000000   25.0000000 1
845  6.815307e-02    1.0000000   25.0000000 1
846  6.284812e-02    1.0000000   25.0000000 1
847  6.156837e-02    1.0000000   25.0000000 1
848  6.653586e-02    1.0000000   25.0000000 1
849  6.327055e-02    1.0000000   25.0000000 1
850  6.135197e-02    1.0000000   25.0000000 1
851  6.486917e-02    1.0000000   25.0000000 1
852  6.839812e-02    1.0000000   25.0000000 1
853  6.716544e-02    1.0000000   25.0000000 1
854  6.309314e-02    1.0000000   25.0000000 1
855  6.504787e-02    1.0000000   25.0000000 1
856  6.407353e-02    1.0000000   25.0000000 1
857  6.563854e-02    1.0000000   25.0000000 1
858  6.249457e-02    1.0000000   25.0000000 1
859  6.722758e-02    1.0000000   25.0000000 1
860  6.161346e-02    1.0000000   25.0000000 1
861  6.273354e-02    1.0000000   25.0000000 1
862  5.830553e-02    1.0000000   25.0000000 1
863  6.321813e-02    1.0000000   25.0000000 1
864  6.265828e-02    1.0000000   25.0000000 1
865  7.312040e-02    1.0000000   25.0000000 1
866  6.260235e-02    1.0000000   25.0000000 1
867  6.104327e-02    1.0000000   25.0000000 1
868  6.162962e-02    1.0000000   25.0000000 1
869  6.306518e-02    1.0000000   25.0000000 1
870  6.227680e-02    1.0000000   25.0000000 1
871  6.493907e-02    1.0000000   25.0000000 1
872  6.665004e-02    1.0000000   25.0000000 1
873  6.169667e-02    1.0000000   25.0000000 1
874  6.244380e-02    1.0000000   25.0000000 1
875  6.230118e-02    1.0000000   25.0000000 1
876  6.234736e-02    1.0000000   25.0000000 1
877  6.214436e-02    1.0000000   25.0000000 1
878  6.531415e-02    1.0000000   25.0000000 1
879  6.749874e-02    1.0000000   25.0000000 1
880  6.448168e-02    1.0000000   25.0000000 1
881  6.124082e-02    1.0000000   25.0000000 1
882  6.460467e-02    1.0000000   25.0000000 1
883  6.225129e-02    1.0000000   25.0000000 1
884  6.090380e-02    1.0000000   25.0000000 1
885  6.263951e-02    1.0000000   25.0000000 1
886  6.376798e-02    1.0000000   25.0000000 1
887  6.340385e-02    1.0000000   25.0000000 1
888  6.381917e-02    1.0000000   25.0000000 1
889  6.356487e-02    1.0000000   25.0000000 1
890  6.263213e-02    1.0000000   25.0000000 1
891  6.285980e-02    1.0000000   25.0000000 1
892  7.368264e-02    1.0000000   25.0000000 1
893  6.445286e-02    1.0000000   25.0000000 1
894  6.789257e-02    1.0000000   25.0000000 1
895  6.520814e-02    1.0000000   25.0000000 1
896  6.516122e-02    1.0000000   25.0000000 1
897  6.622721e-02    1.0000000   25.0000000 1
898  6.616385e-02    1.0000000   25.0000000 1
899  6.316918e-02    1.0000000   25.0000000 1
900  6.203725e-02    1.0000000   25.0000000 1
901  6.425197e-02    1.0000000   25.0000000 1
902  6.412374e-02    1.0000000   25.0000000 1
903  5.988980e-02    1.0000000   25.0000000 1
904  6.579720e-02    1.0000000   25.0000000 1
905  6.240372e-02    1.0000000   25.0000000 1
906  6.239822e-02    1.0000000   25.0000000 1
907  6.510190e-02    1.0000000   25.0000000 1
908  6.385929e-02    1.0000000   25.0000000 1
909  6.787520e-02    1.0000000   25.0000000 1
910  6.941367e-02    1.0000000   25.0000000 1
911  6.687150e-02    1.0000000   25.0000000 1
912  7.380987e-02    1.0000000   25.0000000 1
913  7.353961e-02    1.0000000   25.0000000 1
914  6.771258e-02    1.0000000   25.0000000 1
915  6.243805e-02    1.0000000   25.0000000 1
916  6.159246e-02    1.0000000   25.0000000 1
917  6.751762e-02    1.0000000   25.0000000 1
918  6.281200e-02    1.0000000   25.0000000 1
919  6.675697e-02    1.0000000   25.0000000 1
920  6.279224e-02    1.0000000   25.0000000 1
921  6.656884e-02    1.0000000   25.0000000 1
922  6.231107e-02    1.0000000   25.0000000 1
923  6.626920e-02    1.0000000   25.0000000 1
924  6.261507e-02    1.0000000   25.0000000 1
925  6.256775e-02    1.0000000   25.0000000 1
926  6.463880e-02    1.0000000   25.0000000 1
927  6.154285e-02    1.0000000   25.0000000 1
928  6.145401e-02    1.0000000   25.0000000 1
929  7.585643e-02    1.0000000   25.0000000 1
930  7.268063e-02    1.0000000   25.0000000 1
931  6.367575e-02    1.0000000   25.0000000 1
932  6.458961e-02    1.0000000   25.0000000 1
933  6.214962e-02    1.0000000   25.0000000 1
934  7.381972e-02    1.0000000   25.0000000 1
935  6.189370e-02    1.0000000   25.0000000 1
936  6.810976e-02    1.0000000   25.0000000 1
937  6.657402e-02    1.0000000   25.0000000 1
938  6.127591e-02    1.0000000   25.0000000 1
939  6.576222e-02    1.0000000   25.0000000 1
940  6.158410e-02    1.0000000   25.0000000 1
941  6.264205e-02    1.0000000   25.0000000 1
942  6.295983e-02    1.0000000   25.0000000 1
943  7.314388e-02    1.0000000   25.0000000 1
944  6.967399e-02    1.0000000   25.0000000 1
945  6.194689e-02    1.0000000   25.0000000 1
946  7.396693e-02    1.0000000   25.0000000 1
947  6.820004e-02    1.0000000   25.0000000 1
948  6.277473e-02    1.0000000   25.0000000 1
949  6.178642e-02    1.0000000   25.0000000 1
950  6.096760e-02    1.0000000   25.0000000 1
951  6.616480e-02    1.0000000   25.0000000 1
952  6.121837e-02    1.0000000   25.0000000 1
953  6.318305e-02    1.0000000   25.0000000 1
954  6.135161e-02    1.0000000   25.0000000 1
955  6.665332e-02    1.0000000   25.0000000 1
956  6.279059e-02    1.0000000   25.0000000 1
957  6.313919e-02    1.0000000   25.0000000 1
958  6.242654e-02    1.0000000   25.0000000 1
959  6.222861e-02    1.0000000   25.0000000 1
960  6.323751e-02    1.0000000   25.0000000 1
961  6.235672e-02    1.0000000   25.0000000 1
962  5.812324e-02    1.0000000   25.0000000 1
963  6.539112e-02    1.0000000   25.0000000 1
964  6.676762e-02    1.0000000   25.0000000 1
965  6.491194e-02    1.0000000   25.0000000 1
966  6.457527e-02    1.0000000   25.0000000 1
967  6.233391e-02    1.0000000   25.0000000 1
968  7.574372e-02    1.0000000   25.0000000 1
969  6.297144e-02    1.0000000   25.0000000 1
970  6.419035e-02    1.0000000   25.0000000 1
971  6.659177e-02    1.0000000   25.0000000 1
972  6.843545e-02    1.0000000   25.0000000 1
973  7.239680e-02    1.0000000   25.0000000 1
974  6.654753e-02    1.0000000   25.0000000 1
975  7.146517e-02    1.0000000   25.0000000 1
976  6.498484e-02    1.0000000   25.0000000 1
977  6.224373e-02    1.0000000   25.0000000 1
978  6.828217e-02    1.0000000   25.0000000 1
979  6.206314e-02    1.0000000   25.0000000 1
980  6.280767e-02    1.0000000   25.0000000 1
981  6.780782e-02    1.0000000   25.0000000 1
982  6.149723e-02    1.0000000   25.0000000 1
983  6.356689e-02    1.0000000   25.0000000 1
984  6.285000e-02    1.0000000   25.0000000 1
985  6.407411e-02    1.0000000   25.0000000 1
986  6.444022e-02    1.0000000   25.0000000 1
987  6.270299e-02    1.0000000   25.0000000 1
988  6.443844e-02    1.0000000   25.0000000 1
989  6.386464e-02    1.0000000   25.0000000 1
990  6.536870e-02    1.0000000   25.0000000 1
991  6.697905e-02    1.0000000   25.0000000 1
992  5.847539e-02    1.0000000   25.0000000 1
993  6.306581e-02    1.0000000   25.0000000 1
994  6.355951e-02    1.0000000   25.0000000 1
995  6.341048e-02    1.0000000   25.0000000 1
996  6.510420e-02    1.0000000   25.0000000 1
997  6.507369e-02    1.0000000   25.0000000 1
998  6.499154e-02    1.0000000   25.0000000 1
999  6.222586e-02    1.0000000   25.0000000 1
1000  7.264870e-02    1.0000000   25.0000000 1
